
No compatibility mode selected!

Warning: Unusual leading characters like ')' or others out of '= [] ? () & % $"!:,;\f'
    in netlist or included files, will be replaced with '*'.
    Check line no 7:  )


Circuit: * /home/khadija.fahr/desktop/mixed_signal/fahr_clk-rvmyth-dac/fahr_clk-rvmyth-dac.cir

Reducing trtol to 1 for xspice 'A' devices
Doing analysis at TEMP = 27.000000 and TNOM = 27.000000

=============fahr_rvmyth : New Iteration===========
Instance : 0

Inside foo before eval.....
CLK=0
reset=0
OUT=0

Inside foo after eval.....
CLK=0
reset=0
OUT=0
=============fahr_rvmyth : New Iteration===========
Instance : 0

Inside foo before eval.....
CLK=0
reset=0
OUT=0

Inside foo after eval.....
CLK=0
reset=0
OUT=0

Initial Transient Solution
--------------------------

Node                                   Voltage
----                                   -------
x2.net-_r1-pad1_                             0
x2.net-_r1-pad2_                             0
x2.net-_r2-pad1_                             0
x2.net-_r3-pad1_                             0
x2.net-_r4-pad1_                             0
x2.net-_r5-pad1_                             0
x2.net-_r6-pad1_                             0
x2.net-_r7-pad1_                             0
x2.net-_r9-pad1_                             0
x2.net-_r10-pad1_                            0
x2.net-_r11-pad1_                            0
out                                          0
net-_u4-pad4_                                0
net-_u4-pad3_                                0
net-_u5-pad16_                               0
net-_u5-pad15_                               0
net-_u5-pad14_                               0
net-_u5-pad13_                               0
net-_u5-pad12_                               0
net-_u5-pad11_                               0
net-_u5-pad10_                               0
net-_u5-pad9_                                0
clk                                          5
x1.net-_c2-pad1_                       6.65301
x1.x1.18                                 32440
x1.x1.23                               3.32245
c_out                                0.0784498
x1.x1.9                                      5
x1.x1.2                                1.79645
net-_r1-pad1_                         0.029357
x1.x1.20                                 32440
x1.x1.17                              -65745.6
x1.x1.19                              -65745.6
net-_r1-pad2_                               10
x1.x1.11                                     0
x1.x1.12                                     5
net-_u3-pad2_                                0
e.x1.x1.e1#branch                            0
e.x1.x1.e2#branch                            0
v2#branch                                    0
v1#branch                             -0.01064
a.x1.x1.a4#branch_1_0                        0
a.x1.x1.a3#branch_1_0                        0
a.x2.a11#branch_1_0                          0
a.x2.a10#branch_1_0                          0
a.x2.a9#branch_1_0                           0
a.x2.a8#branch_1_0                           0
a.x2.a7#branch_1_0                           0
a.x2.a6#branch_1_0                           0
a.x2.a5#branch_1_0                           0
a.x2.a4#branch_1_0                           0
a.x2.a3#branch_1_0                           0
a.x2.a2#branch_1_0                           0
a.x2.a1#branch_1_0                           0
a3#branch_1_0                                0
a3#branch_1_1                                0
a2#branch_1_0                                0
a2#branch_1_1                                0
a2#branch_1_2                                0
a2#branch_1_3                                0
a2#branch_1_4                                0
a2#branch_1_5                                0
a2#branch_1_6                                0
a2#branch_1_7                                0
a.x1.x1.a6#branch_1_0               -0.0021357
a.x1.x1.a5#branch_1_0                   -0.005


ERROR - Output delay <= 0 not allowed - output ignored!
  Instance: a.x1.x1.a2
  Node: x1.x1.8
  Time: 0.000000 

ERROR - Output delay <= 0 not allowed - output ignored!
  Instance: a.x1.x1.a2
  Node: x1.x1.10
  Time: 0.000000 
=============fahr_rvmyth : New Iteration===========
Instance : 0

Inside foo before eval.....
CLK=0
reset=0
OUT=0

Inside foo after eval.....
CLK=1
reset=0
OUT=0
=============fahr_rvmyth : New Iteration===========
Instance : 0

Inside foo before eval.....
CLK=1
reset=0
OUT=0

Inside foo after eval.....
CLK=0
reset=0
OUT=0
=============fahr_rvmyth : New Iteration===========
Instance : 0

Inside foo before eval.....
CLK=0
reset=0
OUT=0

Inside foo after eval.....
CLK=1
reset=0
OUT=0
=============fahr_rvmyth : New Iteration===========
Instance : 0

Inside foo before eval.....
CLK=1
reset=0
OUT=0

Inside foo after eval.....
CLK=1
reset=0
OUT=0
=============fahr_rvmyth : New Iteration===========
Instance : 0

Inside foo before eval.....
CLK=1
reset=0
OUT=0

Inside foo after eval.....
CLK=0
reset=0
OUT=0
=============fahr_rvmyth : New Iteration===========
Instance : 0

Inside foo before eval.....
CLK=0
reset=0
OUT=0

Inside foo after eval.....
CLK=1
reset=0
OUT=0
=============fahr_rvmyth : New Iteration===========
Instance : 0

Inside foo before eval.....
CLK=1
reset=0
OUT=0

Inside foo after eval.....
CLK=1
reset=0
OUT=0
=============fahr_rvmyth : New Iteration===========
Instance : 0

Inside foo before eval.....
CLK=1
reset=0
OUT=0

Inside foo after eval.....
CLK=0
reset=0
OUT=0
=============fahr_rvmyth : New Iteration===========
Instance : 0

Inside foo before eval.....
CLK=0
reset=0
OUT=0

Inside foo after eval.....
CLK=1
reset=0
OUT=0
=============fahr_rvmyth : New Iteration===========
Instance : 0

Inside foo before eval.....
CLK=1
reset=0
OUT=0

Inside foo after eval.....
CLK=1
reset=0
OUT=0
=============fahr_rvmyth : New Iteration===========
Instance : 0

Inside foo before eval.....
CLK=1
reset=0
OUT=0

Inside foo after eval.....
CLK=0
reset=0
OUT=0
=============fahr_rvmyth : New Iteration===========
Instance : 0

Inside foo before eval.....
CLK=0
reset=0
OUT=0

Inside foo after eval.....
CLK=1
reset=0
OUT=0
=============fahr_rvmyth : New Iteration===========
Instance : 0

Inside foo before eval.....
CLK=1
reset=0
OUT=0

Inside foo after eval.....
CLK=1
reset=0
OUT=0
=============fahr_rvmyth : New Iteration===========
Instance : 0

Inside foo before eval.....
CLK=1
reset=0
OUT=0

Inside foo after eval.....
CLK=0
reset=0
OUT=0
=============fahr_rvmyth : New Iteration===========
Instance : 0

Inside foo before eval.....
CLK=0
reset=0
OUT=0

Inside foo after eval.....
CLK=1
reset=0
OUT=0
=============fahr_rvmyth : New Iteration===========
Instance : 0

Inside foo before eval.....
CLK=1
reset=0
OUT=0

Inside foo after eval.....
CLK=1
reset=0
OUT=0
=============fahr_rvmyth : New Iteration===========
Instance : 0

Inside foo before eval.....
CLK=1
reset=0
OUT=0

Inside foo after eval.....
CLK=0
reset=0
OUT=0
=============fahr_rvmyth : New Iteration===========
Instance : 0

Inside foo before eval.....
CLK=0
reset=0
OUT=0

Inside foo after eval.....
CLK=1
reset=0
OUT=0
=============fahr_rvmyth : New Iteration===========
Instance : 0

Inside foo before eval.....
CLK=1
reset=0
OUT=0

Inside foo after eval.....
CLK=1
reset=0
OUT=0
=============fahr_rvmyth : New Iteration===========
Instance : 0

Inside foo before eval.....
CLK=1
reset=0
OUT=0

Inside foo after eval.....
CLK=0
reset=0
OUT=0
=============fahr_rvmyth : New Iteration===========
Instance : 0

Inside foo before eval.....
CLK=0
reset=0
OUT=0

Inside foo after eval.....
CLK=1
reset=0
OUT=0
=============fahr_rvmyth : New Iteration===========
Instance : 0

Inside foo before eval.....
CLK=1
reset=0
OUT=0

Inside foo after eval.....
CLK=1
reset=0
OUT=0
=============fahr_rvmyth : New Iteration===========
Instance : 0

Inside foo before eval.....
CLK=1
reset=0
OUT=0

Inside foo after eval.....
CLK=0
reset=0
OUT=0
=============fahr_rvmyth : New Iteration===========
Instance : 0

Inside foo before eval.....
CLK=0
reset=0
OUT=0

Inside foo after eval.....
CLK=1
reset=0
OUT=0
=============fahr_rvmyth : New Iteration===========
Instance : 0

Inside foo before eval.....
CLK=1
reset=0
OUT=0

Inside foo after eval.....
CLK=1
reset=0
OUT=0
=============fahr_rvmyth : New Iteration===========
Instance : 0

Inside foo before eval.....
CLK=1
reset=0
OUT=0

Inside foo after eval.....
CLK=0
reset=0
OUT=0
=============fahr_rvmyth : New Iteration===========
Instance : 0

Inside foo before eval.....
CLK=0
reset=0
OUT=0

Inside foo after eval.....
CLK=1
reset=0
OUT=0
=============fahr_rvmyth : New Iteration===========
Instance : 0

Inside foo before eval.....
CLK=1
reset=0
OUT=0

Inside foo after eval.....
CLK=1
reset=0
OUT=0
=============fahr_rvmyth : New Iteration===========
Instance : 0

Inside foo before eval.....
CLK=1
reset=0
OUT=0

Inside foo after eval.....
CLK=0
reset=0
OUT=0
=============fahr_rvmyth : New Iteration===========
Instance : 0

Inside foo before eval.....
CLK=0
reset=0
OUT=0

Inside foo after eval.....
CLK=1
reset=0
OUT=0
=============fahr_rvmyth : New Iteration===========
Instance : 0

Inside foo before eval.....
CLK=1
reset=0
OUT=0

Inside foo after eval.....
CLK=1
reset=0
OUT=0
=============fahr_rvmyth : New Iteration===========
Instance : 0

Inside foo before eval.....
CLK=1
reset=0
OUT=0

Inside foo after eval.....
CLK=0
reset=0
OUT=0
=============fahr_rvmyth : New Iteration===========
Instance : 0

Inside foo before eval.....
CLK=0
reset=0
OUT=0

Inside foo after eval.....
CLK=1
reset=0
OUT=0
=============fahr_rvmyth : New Iteration===========
Instance : 0

Inside foo before eval.....
CLK=1
reset=0
OUT=0

Inside foo after eval.....
CLK=1
reset=0
OUT=0
=============fahr_rvmyth : New Iteration===========
Instance : 0

Inside foo before eval.....
CLK=1
reset=0
OUT=0

Inside foo after eval.....
CLK=0
reset=0
OUT=0
=============fahr_rvmyth : New Iteration===========
Instance : 0

Inside foo before eval.....
CLK=0
reset=0
OUT=0

Inside foo after eval.....
CLK=1
reset=0
OUT=0
=============fahr_rvmyth : New Iteration===========
Instance : 0

Inside foo before eval.....
CLK=1
reset=0
OUT=0

Inside foo after eval.....
CLK=1
reset=0
OUT=0
=============fahr_rvmyth : New Iteration===========
Instance : 0

Inside foo before eval.....
CLK=1
reset=0
OUT=0

Inside foo after eval.....
CLK=0
reset=0
OUT=0
=============fahr_rvmyth : New Iteration===========
Instance : 0

Inside foo before eval.....
CLK=0
reset=0
OUT=0

Inside foo after eval.....
CLK=1
reset=0
OUT=1
=============fahr_rvmyth : New Iteration===========
Instance : 0

Inside foo before eval.....
CLK=1
reset=0
OUT=1

Inside foo after eval.....
CLK=1
reset=0
OUT=1
=============fahr_rvmyth : New Iteration===========
Instance : 0

Inside foo before eval.....
CLK=1
reset=0
OUT=1

Inside foo after eval.....
CLK=0
reset=0
OUT=1
=============fahr_rvmyth : New Iteration===========
Instance : 0

Inside foo before eval.....
CLK=0
reset=0
OUT=1

Inside foo after eval.....
CLK=1
reset=0
OUT=1
=============fahr_rvmyth : New Iteration===========
Instance : 0

Inside foo before eval.....
CLK=1
reset=0
OUT=1

Inside foo after eval.....
CLK=1
reset=0
OUT=1
=============fahr_rvmyth : New Iteration===========
Instance : 0

Inside foo before eval.....
CLK=1
reset=0
OUT=1

Inside foo after eval.....
CLK=0
reset=0
OUT=1
=============fahr_rvmyth : New Iteration===========
Instance : 0

Inside foo before eval.....
CLK=0
reset=0
OUT=1

Inside foo after eval.....
CLK=1
reset=0
OUT=1
=============fahr_rvmyth : New Iteration===========
Instance : 0

Inside foo before eval.....
CLK=1
reset=0
OUT=1

Inside foo after eval.....
CLK=1
reset=0
OUT=1
=============fahr_rvmyth : New Iteration===========
Instance : 0

Inside foo before eval.....
CLK=1
reset=0
OUT=1

Inside foo after eval.....
CLK=0
reset=0
OUT=1
=============fahr_rvmyth : New Iteration===========
Instance : 0

Inside foo before eval.....
CLK=0
reset=0
OUT=1

Inside foo after eval.....
CLK=1
reset=0
OUT=1
=============fahr_rvmyth : New Iteration===========
Instance : 0

Inside foo before eval.....
CLK=1
reset=0
OUT=1

Inside foo after eval.....
CLK=1
reset=0
OUT=1
=============fahr_rvmyth : New Iteration===========
Instance : 0

Inside foo before eval.....
CLK=1
reset=0
OUT=1

Inside foo after eval.....
CLK=0
reset=0
OUT=1
=============fahr_rvmyth : New Iteration===========
Instance : 0

Inside foo before eval.....
CLK=0
reset=0
OUT=1

Inside foo after eval.....
CLK=1
reset=0
OUT=1
=============fahr_rvmyth : New Iteration===========
Instance : 0

Inside foo before eval.....
CLK=1
reset=0
OUT=1

Inside foo after eval.....
CLK=1
reset=0
OUT=1
=============fahr_rvmyth : New Iteration===========
Instance : 0

Inside foo before eval.....
CLK=1
reset=0
OUT=1

Inside foo after eval.....
CLK=0
reset=0
OUT=1
=============fahr_rvmyth : New Iteration===========
Instance : 0

Inside foo before eval.....
CLK=0
reset=0
OUT=1

Inside foo after eval.....
CLK=1
reset=0
OUT=3
=============fahr_rvmyth : New Iteration===========
Instance : 0

Inside foo before eval.....
CLK=1
reset=0
OUT=3

Inside foo after eval.....
CLK=1
reset=0
OUT=3
=============fahr_rvmyth : New Iteration===========
Instance : 0

Inside foo before eval.....
CLK=1
reset=0
OUT=3

Inside foo after eval.....
CLK=0
reset=0
OUT=3
=============fahr_rvmyth : New Iteration===========
Instance : 0

Inside foo before eval.....
CLK=0
reset=0
OUT=3

Inside foo after eval.....
CLK=1
reset=0
OUT=3
=============fahr_rvmyth : New Iteration===========
Instance : 0

Inside foo before eval.....
CLK=1
reset=0
OUT=3

Inside foo after eval.....
CLK=1
reset=0
OUT=3
=============fahr_rvmyth : New Iteration===========
Instance : 0

Inside foo before eval.....
CLK=1
reset=0
OUT=3

Inside foo after eval.....
CLK=0
reset=0
OUT=3
=============fahr_rvmyth : New Iteration===========
Instance : 0

Inside foo before eval.....
CLK=0
reset=0
OUT=3

Inside foo after eval.....
CLK=1
reset=0
OUT=3
=============fahr_rvmyth : New Iteration===========
Instance : 0

Inside foo before eval.....
CLK=1
reset=0
OUT=3

Inside foo after eval.....
CLK=1
reset=0
OUT=3
=============fahr_rvmyth : New Iteration===========
Instance : 0

Inside foo before eval.....
CLK=1
reset=0
OUT=3

Inside foo after eval.....
CLK=0
reset=0
OUT=3
=============fahr_rvmyth : New Iteration===========
Instance : 0

Inside foo before eval.....
CLK=0
reset=0
OUT=3

Inside foo after eval.....
CLK=1
reset=0
OUT=3
=============fahr_rvmyth : New Iteration===========
Instance : 0

Inside foo before eval.....
CLK=1
reset=0
OUT=3

Inside foo after eval.....
CLK=1
reset=0
OUT=3
=============fahr_rvmyth : New Iteration===========
Instance : 0

Inside foo before eval.....
CLK=1
reset=0
OUT=3

Inside foo after eval.....
CLK=0
reset=0
OUT=3
=============fahr_rvmyth : New Iteration===========
Instance : 0

Inside foo before eval.....
CLK=0
reset=0
OUT=3

Inside foo after eval.....
CLK=1
reset=0
OUT=3
=============fahr_rvmyth : New Iteration===========
Instance : 0

Inside foo before eval.....
CLK=1
reset=0
OUT=3

Inside foo after eval.....
CLK=1
reset=0
OUT=3
=============fahr_rvmyth : New Iteration===========
Instance : 0

Inside foo before eval.....
CLK=1
reset=0
OUT=3

Inside foo after eval.....
CLK=0
reset=0
OUT=3
=============fahr_rvmyth : New Iteration===========
Instance : 0

Inside foo before eval.....
CLK=0
reset=0
OUT=3

Inside foo after eval.....
CLK=1
reset=0
OUT=6
=============fahr_rvmyth : New Iteration===========
Instance : 0

Inside foo before eval.....
CLK=1
reset=0
OUT=6

Inside foo after eval.....
CLK=1
reset=0
OUT=6
=============fahr_rvmyth : New Iteration===========
Instance : 0

Inside foo before eval.....
CLK=1
reset=0
OUT=6

Inside foo after eval.....
CLK=0
reset=0
OUT=6
=============fahr_rvmyth : New Iteration===========
Instance : 0

Inside foo before eval.....
CLK=0
reset=0
OUT=6

Inside foo after eval.....
CLK=1
reset=0
OUT=6
=============fahr_rvmyth : New Iteration===========
Instance : 0

Inside foo before eval.....
CLK=1
reset=0
OUT=6

Inside foo after eval.....
CLK=1
reset=0
OUT=6
=============fahr_rvmyth : New Iteration===========
Instance : 0

Inside foo before eval.....
CLK=1
reset=0
OUT=6

Inside foo after eval.....
CLK=0
reset=0
OUT=6
=============fahr_rvmyth : New Iteration===========
Instance : 0

Inside foo before eval.....
CLK=0
reset=0
OUT=6

Inside foo after eval.....
CLK=1
reset=0
OUT=6
=============fahr_rvmyth : New Iteration===========
Instance : 0

Inside foo before eval.....
CLK=1
reset=0
OUT=6

Inside foo after eval.....
CLK=1
reset=0
OUT=6
=============fahr_rvmyth : New Iteration===========
Instance : 0

Inside foo before eval.....
CLK=1
reset=0
OUT=6

Inside foo after eval.....
CLK=0
reset=0
OUT=6
=============fahr_rvmyth : New Iteration===========
Instance : 0

Inside foo before eval.....
CLK=0
reset=0
OUT=6

Inside foo after eval.....
CLK=1
reset=0
OUT=6
=============fahr_rvmyth : New Iteration===========
Instance : 0

Inside foo before eval.....
CLK=1
reset=0
OUT=6

Inside foo after eval.....
CLK=1
reset=0
OUT=6
=============fahr_rvmyth : New Iteration===========
Instance : 0

Inside foo before eval.....
CLK=1
reset=0
OUT=6

Inside foo after eval.....
CLK=0
reset=0
OUT=6
=============fahr_rvmyth : New Iteration===========
Instance : 0

Inside foo before eval.....
CLK=0
reset=0
OUT=6

Inside foo after eval.....
CLK=1
reset=0
OUT=6
=============fahr_rvmyth : New Iteration===========
Instance : 0

Inside foo before eval.....
CLK=1
reset=0
OUT=6

Inside foo after eval.....
CLK=1
reset=0
OUT=6
=============fahr_rvmyth : New Iteration===========
Instance : 0

Inside foo before eval.....
CLK=1
reset=0
OUT=6

Inside foo after eval.....
CLK=0
reset=0
OUT=6
=============fahr_rvmyth : New Iteration===========
Instance : 0

Inside foo before eval.....
CLK=0
reset=0
OUT=6

Inside foo after eval.....
CLK=1
reset=0
OUT=10
=============fahr_rvmyth : New Iteration===========
Instance : 0

Inside foo before eval.....
CLK=1
reset=0
OUT=10

Inside foo after eval.....
CLK=1
reset=0
OUT=10
=============fahr_rvmyth : New Iteration===========
Instance : 0

Inside foo before eval.....
CLK=1
reset=0
OUT=10

Inside foo after eval.....
CLK=0
reset=0
OUT=10
=============fahr_rvmyth : New Iteration===========
Instance : 0

Inside foo before eval.....
CLK=0
reset=0
OUT=10

Inside foo after eval.....
CLK=1
reset=0
OUT=10
=============fahr_rvmyth : New Iteration===========
Instance : 0

Inside foo before eval.....
CLK=1
reset=0
OUT=10

Inside foo after eval.....
CLK=1
reset=0
OUT=10
=============fahr_rvmyth : New Iteration===========
Instance : 0

Inside foo before eval.....
CLK=1
reset=0
OUT=10

Inside foo after eval.....
CLK=0
reset=0
OUT=10
=============fahr_rvmyth : New Iteration===========
Instance : 0

Inside foo before eval.....
CLK=0
reset=0
OUT=10

Inside foo after eval.....
CLK=1
reset=0
OUT=10
=============fahr_rvmyth : New Iteration===========
Instance : 0

Inside foo before eval.....
CLK=1
reset=0
OUT=10

Inside foo after eval.....
CLK=1
reset=0
OUT=10
=============fahr_rvmyth : New Iteration===========
Instance : 0

Inside foo before eval.....
CLK=1
reset=0
OUT=10

Inside foo after eval.....
CLK=0
reset=0
OUT=10
=============fahr_rvmyth : New Iteration===========
Instance : 0

Inside foo before eval.....
CLK=0
reset=0
OUT=10

Inside foo after eval.....
CLK=1
reset=0
OUT=10
=============fahr_rvmyth : New Iteration===========
Instance : 0

Inside foo before eval.....
CLK=1
reset=0
OUT=10

Inside foo after eval.....
CLK=1
reset=0
OUT=10
=============fahr_rvmyth : New Iteration===========
Instance : 0

Inside foo before eval.....
CLK=1
reset=0
OUT=10

Inside foo after eval.....
CLK=0
reset=0
OUT=10
=============fahr_rvmyth : New Iteration===========
Instance : 0

Inside foo before eval.....
CLK=0
reset=0
OUT=10

Inside foo after eval.....
CLK=1
reset=0
OUT=10
=============fahr_rvmyth : New Iteration===========
Instance : 0

Inside foo before eval.....
CLK=1
reset=0
OUT=10

Inside foo after eval.....
CLK=1
reset=0
OUT=10
=============fahr_rvmyth : New Iteration===========
Instance : 0

Inside foo before eval.....
CLK=1
reset=0
OUT=10

Inside foo after eval.....
CLK=0
reset=0
OUT=10
=============fahr_rvmyth : New Iteration===========
Instance : 0

Inside foo before eval.....
CLK=0
reset=0
OUT=10

Inside foo after eval.....
CLK=1
reset=0
OUT=15
=============fahr_rvmyth : New Iteration===========
Instance : 0

Inside foo before eval.....
CLK=1
reset=0
OUT=15

Inside foo after eval.....
CLK=1
reset=0
OUT=15
=============fahr_rvmyth : New Iteration===========
Instance : 0

Inside foo before eval.....
CLK=1
reset=0
OUT=15

Inside foo after eval.....
CLK=0
reset=0
OUT=15
=============fahr_rvmyth : New Iteration===========
Instance : 0

Inside foo before eval.....
CLK=0
reset=0
OUT=15

Inside foo after eval.....
CLK=1
reset=0
OUT=15
=============fahr_rvmyth : New Iteration===========
Instance : 0

Inside foo before eval.....
CLK=1
reset=0
OUT=15

Inside foo after eval.....
CLK=1
reset=0
OUT=15
=============fahr_rvmyth : New Iteration===========
Instance : 0

Inside foo before eval.....
CLK=1
reset=0
OUT=15

Inside foo after eval.....
CLK=0
reset=0
OUT=15
=============fahr_rvmyth : New Iteration===========
Instance : 0

Inside foo before eval.....
CLK=0
reset=0
OUT=15

Inside foo after eval.....
CLK=1
reset=0
OUT=15
=============fahr_rvmyth : New Iteration===========
Instance : 0

Inside foo before eval.....
CLK=1
reset=0
OUT=15

Inside foo after eval.....
CLK=1
reset=0
OUT=15
=============fahr_rvmyth : New Iteration===========
Instance : 0

Inside foo before eval.....
CLK=1
reset=0
OUT=15

Inside foo after eval.....
CLK=0
reset=0
OUT=15
=============fahr_rvmyth : New Iteration===========
Instance : 0

Inside foo before eval.....
CLK=0
reset=0
OUT=15

Inside foo after eval.....
CLK=1
reset=0
OUT=15
=============fahr_rvmyth : New Iteration===========
Instance : 0

Inside foo before eval.....
CLK=1
reset=0
OUT=15

Inside foo after eval.....
CLK=1
reset=0
OUT=15
=============fahr_rvmyth : New Iteration===========
Instance : 0

Inside foo before eval.....
CLK=1
reset=0
OUT=15

Inside foo after eval.....
CLK=0
reset=0
OUT=15
=============fahr_rvmyth : New Iteration===========
Instance : 0

Inside foo before eval.....
CLK=0
reset=0
OUT=15

Inside foo after eval.....
CLK=1
reset=0
OUT=15
=============fahr_rvmyth : New Iteration===========
Instance : 0

Inside foo before eval.....
CLK=1
reset=0
OUT=15

Inside foo after eval.....
CLK=1
reset=0
OUT=15
=============fahr_rvmyth : New Iteration===========
Instance : 0

Inside foo before eval.....
CLK=1
reset=0
OUT=15

Inside foo after eval.....
CLK=0
reset=0
OUT=15
=============fahr_rvmyth : New Iteration===========
Instance : 0

Inside foo before eval.....
CLK=0
reset=0
OUT=15

Inside foo after eval.....
CLK=1
reset=0
OUT=21
=============fahr_rvmyth : New Iteration===========
Instance : 0

Inside foo before eval.....
CLK=1
reset=0
OUT=21

Inside foo after eval.....
CLK=1
reset=0
OUT=21
=============fahr_rvmyth : New Iteration===========
Instance : 0

Inside foo before eval.....
CLK=1
reset=0
OUT=21

Inside foo after eval.....
CLK=0
reset=0
OUT=21
=============fahr_rvmyth : New Iteration===========
Instance : 0

Inside foo before eval.....
CLK=0
reset=0
OUT=21

Inside foo after eval.....
CLK=1
reset=0
OUT=21
=============fahr_rvmyth : New Iteration===========
Instance : 0

Inside foo before eval.....
CLK=1
reset=0
OUT=21

Inside foo after eval.....
CLK=1
reset=0
OUT=21
=============fahr_rvmyth : New Iteration===========
Instance : 0

Inside foo before eval.....
CLK=1
reset=0
OUT=21

Inside foo after eval.....
CLK=0
reset=0
OUT=21
=============fahr_rvmyth : New Iteration===========
Instance : 0

Inside foo before eval.....
CLK=0
reset=0
OUT=21

Inside foo after eval.....
CLK=1
reset=0
OUT=21
=============fahr_rvmyth : New Iteration===========
Instance : 0

Inside foo before eval.....
CLK=1
reset=0
OUT=21

Inside foo after eval.....
CLK=1
reset=0
OUT=21
=============fahr_rvmyth : New Iteration===========
Instance : 0

Inside foo before eval.....
CLK=1
reset=0
OUT=21

Inside foo after eval.....
CLK=0
reset=0
OUT=21
=============fahr_rvmyth : New Iteration===========
Instance : 0

Inside foo before eval.....
CLK=0
reset=0
OUT=21

Inside foo after eval.....
CLK=1
reset=0
OUT=21
=============fahr_rvmyth : New Iteration===========
Instance : 0

Inside foo before eval.....
CLK=1
reset=0
OUT=21

Inside foo after eval.....
CLK=1
reset=0
OUT=21
=============fahr_rvmyth : New Iteration===========
Instance : 0

Inside foo before eval.....
CLK=1
reset=0
OUT=21

Inside foo after eval.....
CLK=0
reset=0
OUT=21
=============fahr_rvmyth : New Iteration===========
Instance : 0

Inside foo before eval.....
CLK=0
reset=0
OUT=21

Inside foo after eval.....
CLK=1
reset=0
OUT=21
=============fahr_rvmyth : New Iteration===========
Instance : 0

Inside foo before eval.....
CLK=1
reset=0
OUT=21

Inside foo after eval.....
CLK=1
reset=0
OUT=21
=============fahr_rvmyth : New Iteration===========
Instance : 0

Inside foo before eval.....
CLK=1
reset=0
OUT=21

Inside foo after eval.....
CLK=0
reset=0
OUT=21
=============fahr_rvmyth : New Iteration===========
Instance : 0

Inside foo before eval.....
CLK=0
reset=0
OUT=21

Inside foo after eval.....
CLK=1
reset=0
OUT=28
=============fahr_rvmyth : New Iteration===========
Instance : 0

Inside foo before eval.....
CLK=1
reset=0
OUT=28

Inside foo after eval.....
CLK=1
reset=0
OUT=28
=============fahr_rvmyth : New Iteration===========
Instance : 0

Inside foo before eval.....
CLK=1
reset=0
OUT=28

Inside foo after eval.....
CLK=0
reset=0
OUT=28
=============fahr_rvmyth : New Iteration===========
Instance : 0

Inside foo before eval.....
CLK=0
reset=0
OUT=28

Inside foo after eval.....
CLK=1
reset=0
OUT=28
=============fahr_rvmyth : New Iteration===========
Instance : 0

Inside foo before eval.....
CLK=1
reset=0
OUT=28

Inside foo after eval.....
CLK=1
reset=0
OUT=28
=============fahr_rvmyth : New Iteration===========
Instance : 0

Inside foo before eval.....
CLK=1
reset=0
OUT=28

Inside foo after eval.....
CLK=0
reset=0
OUT=28
=============fahr_rvmyth : New Iteration===========
Instance : 0

Inside foo before eval.....
CLK=0
reset=0
OUT=28

Inside foo after eval.....
CLK=1
reset=0
OUT=28
=============fahr_rvmyth : New Iteration===========
Instance : 0

Inside foo before eval.....
CLK=1
reset=0
OUT=28

Inside foo after eval.....
CLK=1
reset=0
OUT=28
=============fahr_rvmyth : New Iteration===========
Instance : 0

Inside foo before eval.....
CLK=1
reset=0
OUT=28

Inside foo after eval.....
CLK=0
reset=0
OUT=28
=============fahr_rvmyth : New Iteration===========
Instance : 0

Inside foo before eval.....
CLK=0
reset=0
OUT=28

Inside foo after eval.....
CLK=1
reset=0
OUT=28
=============fahr_rvmyth : New Iteration===========
Instance : 0

Inside foo before eval.....
CLK=1
reset=0
OUT=28

Inside foo after eval.....
CLK=1
reset=0
OUT=28
=============fahr_rvmyth : New Iteration===========
Instance : 0

Inside foo before eval.....
CLK=1
reset=0
OUT=28

Inside foo after eval.....
CLK=0
reset=0
OUT=28
=============fahr_rvmyth : New Iteration===========
Instance : 0

Inside foo before eval.....
CLK=0
reset=0
OUT=28

Inside foo after eval.....
CLK=1
reset=0
OUT=28
=============fahr_rvmyth : New Iteration===========
Instance : 0

Inside foo before eval.....
CLK=1
reset=0
OUT=28

Inside foo after eval.....
CLK=1
reset=0
OUT=28
=============fahr_rvmyth : New Iteration===========
Instance : 0

Inside foo before eval.....
CLK=1
reset=0
OUT=28

Inside foo after eval.....
CLK=0
reset=0
OUT=28
=============fahr_rvmyth : New Iteration===========
Instance : 0

Inside foo before eval.....
CLK=0
reset=0
OUT=28

Inside foo after eval.....
CLK=1
reset=0
OUT=36
=============fahr_rvmyth : New Iteration===========
Instance : 0

Inside foo before eval.....
CLK=1
reset=0
OUT=36

Inside foo after eval.....
CLK=1
reset=0
OUT=36
=============fahr_rvmyth : New Iteration===========
Instance : 0

Inside foo before eval.....
CLK=1
reset=0
OUT=36

Inside foo after eval.....
CLK=0
reset=0
OUT=36
=============fahr_rvmyth : New Iteration===========
Instance : 0

Inside foo before eval.....
CLK=0
reset=0
OUT=36

Inside foo after eval.....
CLK=1
reset=0
OUT=36
=============fahr_rvmyth : New Iteration===========
Instance : 0

Inside foo before eval.....
CLK=1
reset=0
OUT=36

Inside foo after eval.....
CLK=1
reset=0
OUT=36
=============fahr_rvmyth : New Iteration===========
Instance : 0

Inside foo before eval.....
CLK=1
reset=0
OUT=36

Inside foo after eval.....
CLK=0
reset=0
OUT=36
=============fahr_rvmyth : New Iteration===========
Instance : 0

Inside foo before eval.....
CLK=0
reset=0
OUT=36

Inside foo after eval.....
CLK=1
reset=0
OUT=36
=============fahr_rvmyth : New Iteration===========
Instance : 0

Inside foo before eval.....
CLK=1
reset=0
OUT=36

Inside foo after eval.....
CLK=1
reset=0
OUT=36
=============fahr_rvmyth : New Iteration===========
Instance : 0

Inside foo before eval.....
CLK=1
reset=0
OUT=36

Inside foo after eval.....
CLK=0
reset=0
OUT=36
=============fahr_rvmyth : New Iteration===========
Instance : 0

Inside foo before eval.....
CLK=0
reset=0
OUT=36

Inside foo after eval.....
CLK=1
reset=0
OUT=36
=============fahr_rvmyth : New Iteration===========
Instance : 0

Inside foo before eval.....
CLK=1
reset=0
OUT=36

Inside foo after eval.....
CLK=1
reset=0
OUT=36
=============fahr_rvmyth : New Iteration===========
Instance : 0

Inside foo before eval.....
CLK=1
reset=0
OUT=36

Inside foo after eval.....
CLK=0
reset=0
OUT=36
=============fahr_rvmyth : New Iteration===========
Instance : 0

Inside foo before eval.....
CLK=0
reset=0
OUT=36

Inside foo after eval.....
CLK=1
reset=0
OUT=36
=============fahr_rvmyth : New Iteration===========
Instance : 0

Inside foo before eval.....
CLK=1
reset=0
OUT=36

Inside foo after eval.....
CLK=1
reset=0
OUT=36
=============fahr_rvmyth : New Iteration===========
Instance : 0

Inside foo before eval.....
CLK=1
reset=0
OUT=36

Inside foo after eval.....
CLK=0
reset=0
OUT=36
=============fahr_rvmyth : New Iteration===========
Instance : 0

Inside foo before eval.....
CLK=0
reset=0
OUT=36

Inside foo after eval.....
CLK=1
reset=0
OUT=45
=============fahr_rvmyth : New Iteration===========
Instance : 0

Inside foo before eval.....
CLK=1
reset=0
OUT=45

Inside foo after eval.....
CLK=1
reset=0
OUT=45
=============fahr_rvmyth : New Iteration===========
Instance : 0

Inside foo before eval.....
CLK=1
reset=0
OUT=45

Inside foo after eval.....
CLK=0
reset=0
OUT=45
=============fahr_rvmyth : New Iteration===========
Instance : 0

Inside foo before eval.....
CLK=0
reset=0
OUT=45

Inside foo after eval.....
CLK=1
reset=0
OUT=45
=============fahr_rvmyth : New Iteration===========
Instance : 0

Inside foo before eval.....
CLK=1
reset=0
OUT=45

Inside foo after eval.....
CLK=1
reset=0
OUT=45
=============fahr_rvmyth : New Iteration===========
Instance : 0

Inside foo before eval.....
CLK=1
reset=0
OUT=45

Inside foo after eval.....
CLK=0
reset=0
OUT=45
=============fahr_rvmyth : New Iteration===========
Instance : 0

Inside foo before eval.....
CLK=0
reset=0
OUT=45

Inside foo after eval.....
CLK=1
reset=0
OUT=45
=============fahr_rvmyth : New Iteration===========
Instance : 0

Inside foo before eval.....
CLK=1
reset=0
OUT=45

Inside foo after eval.....
CLK=1
reset=0
OUT=45
=============fahr_rvmyth : New Iteration===========
Instance : 0

Inside foo before eval.....
CLK=1
reset=0
OUT=45

Inside foo after eval.....
CLK=0
reset=0
OUT=45
=============fahr_rvmyth : New Iteration===========
Instance : 0

Inside foo before eval.....
CLK=0
reset=0
OUT=45

Inside foo after eval.....
CLK=1
reset=0
OUT=45
=============fahr_rvmyth : New Iteration===========
Instance : 0

Inside foo before eval.....
CLK=1
reset=0
OUT=45

Inside foo after eval.....
CLK=1
reset=0
OUT=45
=============fahr_rvmyth : New Iteration===========
Instance : 0

Inside foo before eval.....
CLK=1
reset=0
OUT=45

Inside foo after eval.....
CLK=0
reset=0
OUT=45
=============fahr_rvmyth : New Iteration===========
Instance : 0

Inside foo before eval.....
CLK=0
reset=0
OUT=45

Inside foo after eval.....
CLK=1
reset=0
OUT=45
=============fahr_rvmyth : New Iteration===========
Instance : 0

Inside foo before eval.....
CLK=1
reset=0
OUT=45

Inside foo after eval.....
CLK=1
reset=0
OUT=45
=============fahr_rvmyth : New Iteration===========
Instance : 0

Inside foo before eval.....
CLK=1
reset=0
OUT=45

Inside foo after eval.....
CLK=0
reset=0
OUT=45
=============fahr_rvmyth : New Iteration===========
Instance : 0

Inside foo before eval.....
CLK=0
reset=0
OUT=45

Inside foo after eval.....
CLK=1
reset=0
OUT=55
=============fahr_rvmyth : New Iteration===========
Instance : 0

Inside foo before eval.....
CLK=1
reset=0
OUT=55

Inside foo after eval.....
CLK=1
reset=0
OUT=55
=============fahr_rvmyth : New Iteration===========
Instance : 0

Inside foo before eval.....
CLK=1
reset=0
OUT=55

Inside foo after eval.....
CLK=0
reset=0
OUT=55
=============fahr_rvmyth : New Iteration===========
Instance : 0

Inside foo before eval.....
CLK=0
reset=0
OUT=55

Inside foo after eval.....
CLK=1
reset=0
OUT=55
=============fahr_rvmyth : New Iteration===========
Instance : 0

Inside foo before eval.....
CLK=1
reset=0
OUT=55

Inside foo after eval.....
CLK=1
reset=0
OUT=55
=============fahr_rvmyth : New Iteration===========
Instance : 0

Inside foo before eval.....
CLK=1
reset=0
OUT=55

Inside foo after eval.....
CLK=0
reset=0
OUT=55
=============fahr_rvmyth : New Iteration===========
Instance : 0

Inside foo before eval.....
CLK=0
reset=0
OUT=55

Inside foo after eval.....
CLK=1
reset=0
OUT=55
=============fahr_rvmyth : New Iteration===========
Instance : 0

Inside foo before eval.....
CLK=1
reset=0
OUT=55

Inside foo after eval.....
CLK=1
reset=0
OUT=55
=============fahr_rvmyth : New Iteration===========
Instance : 0

Inside foo before eval.....
CLK=1
reset=0
OUT=55

Inside foo after eval.....
CLK=0
reset=0
OUT=55
=============fahr_rvmyth : New Iteration===========
Instance : 0

Inside foo before eval.....
CLK=0
reset=0
OUT=55

Inside foo after eval.....
CLK=1
reset=0
OUT=55
=============fahr_rvmyth : New Iteration===========
Instance : 0

Inside foo before eval.....
CLK=1
reset=0
OUT=55

Inside foo after eval.....
CLK=1
reset=0
OUT=55
=============fahr_rvmyth : New Iteration===========
Instance : 0

Inside foo before eval.....
CLK=1
reset=0
OUT=55

Inside foo after eval.....
CLK=0
reset=0
OUT=55
=============fahr_rvmyth : New Iteration===========
Instance : 0

Inside foo before eval.....
CLK=0
reset=0
OUT=55

Inside foo after eval.....
CLK=1
reset=0
OUT=55
=============fahr_rvmyth : New Iteration===========
Instance : 0

Inside foo before eval.....
CLK=1
reset=0
OUT=55

Inside foo after eval.....
CLK=1
reset=0
OUT=55
=============fahr_rvmyth : New Iteration===========
Instance : 0

Inside foo before eval.....
CLK=1
reset=0
OUT=55

Inside foo after eval.....
CLK=0
reset=0
OUT=55
=============fahr_rvmyth : New Iteration===========
Instance : 0

Inside foo before eval.....
CLK=0
reset=0
OUT=55

Inside foo after eval.....
CLK=1
reset=0
OUT=66
=============fahr_rvmyth : New Iteration===========
Instance : 0

Inside foo before eval.....
CLK=1
reset=0
OUT=66

Inside foo after eval.....
CLK=1
reset=0
OUT=66
=============fahr_rvmyth : New Iteration===========
Instance : 0

Inside foo before eval.....
CLK=1
reset=0
OUT=66

Inside foo after eval.....
CLK=0
reset=0
OUT=66
=============fahr_rvmyth : New Iteration===========
Instance : 0

Inside foo before eval.....
CLK=0
reset=0
OUT=66

Inside foo after eval.....
CLK=1
reset=0
OUT=66
=============fahr_rvmyth : New Iteration===========
Instance : 0

Inside foo before eval.....
CLK=1
reset=0
OUT=66

Inside foo after eval.....
CLK=1
reset=0
OUT=66
=============fahr_rvmyth : New Iteration===========
Instance : 0

Inside foo before eval.....
CLK=1
reset=0
OUT=66

Inside foo after eval.....
CLK=0
reset=0
OUT=66
=============fahr_rvmyth : New Iteration===========
Instance : 0

Inside foo before eval.....
CLK=0
reset=0
OUT=66

Inside foo after eval.....
CLK=1
reset=0
OUT=66
=============fahr_rvmyth : New Iteration===========
Instance : 0

Inside foo before eval.....
CLK=1
reset=0
OUT=66

Inside foo after eval.....
CLK=1
reset=0
OUT=66
=============fahr_rvmyth : New Iteration===========
Instance : 0

Inside foo before eval.....
CLK=1
reset=0
OUT=66

Inside foo after eval.....
CLK=0
reset=0
OUT=66
=============fahr_rvmyth : New Iteration===========
Instance : 0

Inside foo before eval.....
CLK=0
reset=0
OUT=66

Inside foo after eval.....
CLK=1
reset=0
OUT=66
=============fahr_rvmyth : New Iteration===========
Instance : 0

Inside foo before eval.....
CLK=1
reset=0
OUT=66

Inside foo after eval.....
CLK=1
reset=0
OUT=66
=============fahr_rvmyth : New Iteration===========
Instance : 0

Inside foo before eval.....
CLK=1
reset=0
OUT=66

Inside foo after eval.....
CLK=0
reset=0
OUT=66
=============fahr_rvmyth : New Iteration===========
Instance : 0

Inside foo before eval.....
CLK=0
reset=0
OUT=66

Inside foo after eval.....
CLK=1
reset=0
OUT=66
=============fahr_rvmyth : New Iteration===========
Instance : 0

Inside foo before eval.....
CLK=1
reset=0
OUT=66

Inside foo after eval.....
CLK=1
reset=0
OUT=66
=============fahr_rvmyth : New Iteration===========
Instance : 0

Inside foo before eval.....
CLK=1
reset=0
OUT=66

Inside foo after eval.....
CLK=0
reset=0
OUT=66
=============fahr_rvmyth : New Iteration===========
Instance : 0

Inside foo before eval.....
CLK=0
reset=0
OUT=66

Inside foo after eval.....
CLK=1
reset=0
OUT=78
=============fahr_rvmyth : New Iteration===========
Instance : 0

Inside foo before eval.....
CLK=1
reset=0
OUT=78

Inside foo after eval.....
CLK=1
reset=0
OUT=78
=============fahr_rvmyth : New Iteration===========
Instance : 0

Inside foo before eval.....
CLK=1
reset=0
OUT=78

Inside foo after eval.....
CLK=0
reset=0
OUT=78
=============fahr_rvmyth : New Iteration===========
Instance : 0

Inside foo before eval.....
CLK=0
reset=0
OUT=78

Inside foo after eval.....
CLK=1
reset=0
OUT=78
=============fahr_rvmyth : New Iteration===========
Instance : 0

Inside foo before eval.....
CLK=1
reset=0
OUT=78

Inside foo after eval.....
CLK=1
reset=0
OUT=78
=============fahr_rvmyth : New Iteration===========
Instance : 0

Inside foo before eval.....
CLK=1
reset=0
OUT=78

Inside foo after eval.....
CLK=0
reset=0
OUT=78
=============fahr_rvmyth : New Iteration===========
Instance : 0

Inside foo before eval.....
CLK=0
reset=0
OUT=78

Inside foo after eval.....
CLK=1
reset=0
OUT=78
=============fahr_rvmyth : New Iteration===========
Instance : 0

Inside foo before eval.....
CLK=1
reset=0
OUT=78

Inside foo after eval.....
CLK=1
reset=0
OUT=78
=============fahr_rvmyth : New Iteration===========
Instance : 0

Inside foo before eval.....
CLK=1
reset=0
OUT=78

Inside foo after eval.....
CLK=0
reset=0
OUT=78
=============fahr_rvmyth : New Iteration===========
Instance : 0

Inside foo before eval.....
CLK=0
reset=0
OUT=78

Inside foo after eval.....
CLK=1
reset=0
OUT=78
=============fahr_rvmyth : New Iteration===========
Instance : 0

Inside foo before eval.....
CLK=1
reset=0
OUT=78

Inside foo after eval.....
CLK=1
reset=0
OUT=78
=============fahr_rvmyth : New Iteration===========
Instance : 0

Inside foo before eval.....
CLK=1
reset=0
OUT=78

Inside foo after eval.....
CLK=0
reset=0
OUT=78
=============fahr_rvmyth : New Iteration===========
Instance : 0

Inside foo before eval.....
CLK=0
reset=0
OUT=78

Inside foo after eval.....
CLK=1
reset=0
OUT=78
=============fahr_rvmyth : New Iteration===========
Instance : 0

Inside foo before eval.....
CLK=1
reset=0
OUT=78

Inside foo after eval.....
CLK=1
reset=0
OUT=78
=============fahr_rvmyth : New Iteration===========
Instance : 0

Inside foo before eval.....
CLK=1
reset=0
OUT=78

Inside foo after eval.....
CLK=0
reset=0
OUT=78
=============fahr_rvmyth : New Iteration===========
Instance : 0

Inside foo before eval.....
CLK=0
reset=0
OUT=78

Inside foo after eval.....
CLK=1
reset=0
OUT=91
=============fahr_rvmyth : New Iteration===========
Instance : 0

Inside foo before eval.....
CLK=1
reset=0
OUT=91

Inside foo after eval.....
CLK=1
reset=0
OUT=91
=============fahr_rvmyth : New Iteration===========
Instance : 0

Inside foo before eval.....
CLK=1
reset=0
OUT=91

Inside foo after eval.....
CLK=0
reset=0
OUT=91
=============fahr_rvmyth : New Iteration===========
Instance : 0

Inside foo before eval.....
CLK=0
reset=0
OUT=91

Inside foo after eval.....
CLK=1
reset=0
OUT=91
=============fahr_rvmyth : New Iteration===========
Instance : 0

Inside foo before eval.....
CLK=1
reset=0
OUT=91

Inside foo after eval.....
CLK=1
reset=0
OUT=91
=============fahr_rvmyth : New Iteration===========
Instance : 0

Inside foo before eval.....
CLK=1
reset=0
OUT=91

Inside foo after eval.....
CLK=0
reset=0
OUT=91
=============fahr_rvmyth : New Iteration===========
Instance : 0

Inside foo before eval.....
CLK=0
reset=0
OUT=91

Inside foo after eval.....
CLK=1
reset=0
OUT=91
=============fahr_rvmyth : New Iteration===========
Instance : 0

Inside foo before eval.....
CLK=1
reset=0
OUT=91

Inside foo after eval.....
CLK=1
reset=0
OUT=91
=============fahr_rvmyth : New Iteration===========
Instance : 0

Inside foo before eval.....
CLK=1
reset=0
OUT=91

Inside foo after eval.....
CLK=0
reset=0
OUT=91
=============fahr_rvmyth : New Iteration===========
Instance : 0

Inside foo before eval.....
CLK=0
reset=0
OUT=91

Inside foo after eval.....
CLK=1
reset=0
OUT=91
=============fahr_rvmyth : New Iteration===========
Instance : 0

Inside foo before eval.....
CLK=1
reset=0
OUT=91

Inside foo after eval.....
CLK=1
reset=0
OUT=91
=============fahr_rvmyth : New Iteration===========
Instance : 0

Inside foo before eval.....
CLK=1
reset=0
OUT=91

Inside foo after eval.....
CLK=0
reset=0
OUT=91
=============fahr_rvmyth : New Iteration===========
Instance : 0

Inside foo before eval.....
CLK=0
reset=0
OUT=91

Inside foo after eval.....
CLK=1
reset=0
OUT=91
=============fahr_rvmyth : New Iteration===========
Instance : 0

Inside foo before eval.....
CLK=1
reset=0
OUT=91

Inside foo after eval.....
CLK=1
reset=0
OUT=91
=============fahr_rvmyth : New Iteration===========
Instance : 0

Inside foo before eval.....
CLK=1
reset=0
OUT=91

Inside foo after eval.....
CLK=0
reset=0
OUT=91
=============fahr_rvmyth : New Iteration===========
Instance : 0

Inside foo before eval.....
CLK=0
reset=0
OUT=91

Inside foo after eval.....
CLK=1
reset=0
OUT=105
=============fahr_rvmyth : New Iteration===========
Instance : 0

Inside foo before eval.....
CLK=1
reset=0
OUT=105

Inside foo after eval.....
CLK=1
reset=0
OUT=105
=============fahr_rvmyth : New Iteration===========
Instance : 0

Inside foo before eval.....
CLK=1
reset=0
OUT=105

Inside foo after eval.....
CLK=0
reset=0
OUT=105
=============fahr_rvmyth : New Iteration===========
Instance : 0

Inside foo before eval.....
CLK=0
reset=0
OUT=105

Inside foo after eval.....
CLK=1
reset=0
OUT=105
=============fahr_rvmyth : New Iteration===========
Instance : 0

Inside foo before eval.....
CLK=1
reset=0
OUT=105

Inside foo after eval.....
CLK=1
reset=0
OUT=105
=============fahr_rvmyth : New Iteration===========
Instance : 0

Inside foo before eval.....
CLK=1
reset=0
OUT=105

Inside foo after eval.....
CLK=0
reset=0
OUT=105
=============fahr_rvmyth : New Iteration===========
Instance : 0

Inside foo before eval.....
CLK=0
reset=0
OUT=105

Inside foo after eval.....
CLK=1
reset=0
OUT=105
=============fahr_rvmyth : New Iteration===========
Instance : 0

Inside foo before eval.....
CLK=1
reset=0
OUT=105

Inside foo after eval.....
CLK=1
reset=0
OUT=105
=============fahr_rvmyth : New Iteration===========
Instance : 0

Inside foo before eval.....
CLK=1
reset=0
OUT=105

Inside foo after eval.....
CLK=0
reset=0
OUT=105
=============fahr_rvmyth : New Iteration===========
Instance : 0

Inside foo before eval.....
CLK=0
reset=0
OUT=105

Inside foo after eval.....
CLK=1
reset=0
OUT=105
=============fahr_rvmyth : New Iteration===========
Instance : 0

Inside foo before eval.....
CLK=1
reset=0
OUT=105

Inside foo after eval.....
CLK=1
reset=0
OUT=105
=============fahr_rvmyth : New Iteration===========
Instance : 0

Inside foo before eval.....
CLK=1
reset=0
OUT=105

Inside foo after eval.....
CLK=0
reset=0
OUT=105
=============fahr_rvmyth : New Iteration===========
Instance : 0

Inside foo before eval.....
CLK=0
reset=0
OUT=105

Inside foo after eval.....
CLK=1
reset=0
OUT=105
=============fahr_rvmyth : New Iteration===========
Instance : 0

Inside foo before eval.....
CLK=1
reset=0
OUT=105

Inside foo after eval.....
CLK=1
reset=0
OUT=105
=============fahr_rvmyth : New Iteration===========
Instance : 0

Inside foo before eval.....
CLK=1
reset=0
OUT=105

Inside foo after eval.....
CLK=0
reset=0
OUT=105
=============fahr_rvmyth : New Iteration===========
Instance : 0

Inside foo before eval.....
CLK=0
reset=0
OUT=105

Inside foo after eval.....
CLK=1
reset=0
OUT=120
=============fahr_rvmyth : New Iteration===========
Instance : 0

Inside foo before eval.....
CLK=1
reset=0
OUT=120

Inside foo after eval.....
CLK=1
reset=0
OUT=120
=============fahr_rvmyth : New Iteration===========
Instance : 0

Inside foo before eval.....
CLK=1
reset=0
OUT=120

Inside foo after eval.....
CLK=0
reset=0
OUT=120
=============fahr_rvmyth : New Iteration===========
Instance : 0

Inside foo before eval.....
CLK=0
reset=0
OUT=120

Inside foo after eval.....
CLK=1
reset=0
OUT=120
=============fahr_rvmyth : New Iteration===========
Instance : 0

Inside foo before eval.....
CLK=1
reset=0
OUT=120

Inside foo after eval.....
CLK=1
reset=0
OUT=120
=============fahr_rvmyth : New Iteration===========
Instance : 0

Inside foo before eval.....
CLK=1
reset=0
OUT=120

Inside foo after eval.....
CLK=0
reset=0
OUT=120
=============fahr_rvmyth : New Iteration===========
Instance : 0

Inside foo before eval.....
CLK=0
reset=0
OUT=120

Inside foo after eval.....
CLK=1
reset=0
OUT=120
=============fahr_rvmyth : New Iteration===========
Instance : 0

Inside foo before eval.....
CLK=1
reset=0
OUT=120

Inside foo after eval.....
CLK=1
reset=0
OUT=120
=============fahr_rvmyth : New Iteration===========
Instance : 0

Inside foo before eval.....
CLK=1
reset=0
OUT=120

Inside foo after eval.....
CLK=0
reset=0
OUT=120
=============fahr_rvmyth : New Iteration===========
Instance : 0

Inside foo before eval.....
CLK=0
reset=0
OUT=120

Inside foo after eval.....
CLK=1
reset=0
OUT=120
=============fahr_rvmyth : New Iteration===========
Instance : 0

Inside foo before eval.....
CLK=1
reset=0
OUT=120

Inside foo after eval.....
CLK=1
reset=0
OUT=120
=============fahr_rvmyth : New Iteration===========
Instance : 0

Inside foo before eval.....
CLK=1
reset=0
OUT=120

Inside foo after eval.....
CLK=0
reset=0
OUT=120
=============fahr_rvmyth : New Iteration===========
Instance : 0

Inside foo before eval.....
CLK=0
reset=0
OUT=120

Inside foo after eval.....
CLK=1
reset=0
OUT=120
=============fahr_rvmyth : New Iteration===========
Instance : 0

Inside foo before eval.....
CLK=1
reset=0
OUT=120

Inside foo after eval.....
CLK=1
reset=0
OUT=120
=============fahr_rvmyth : New Iteration===========
Instance : 0

Inside foo before eval.....
CLK=1
reset=0
OUT=120

Inside foo after eval.....
CLK=0
reset=0
OUT=120
=============fahr_rvmyth : New Iteration===========
Instance : 0

Inside foo before eval.....
CLK=0
reset=0
OUT=120

Inside foo after eval.....
CLK=1
reset=0
OUT=136
=============fahr_rvmyth : New Iteration===========
Instance : 0

Inside foo before eval.....
CLK=1
reset=0
OUT=136

Inside foo after eval.....
CLK=1
reset=0
OUT=136
=============fahr_rvmyth : New Iteration===========
Instance : 0

Inside foo before eval.....
CLK=1
reset=0
OUT=136

Inside foo after eval.....
CLK=0
reset=0
OUT=136
=============fahr_rvmyth : New Iteration===========
Instance : 0

Inside foo before eval.....
CLK=0
reset=0
OUT=136

Inside foo after eval.....
CLK=1
reset=0
OUT=136
=============fahr_rvmyth : New Iteration===========
Instance : 0

Inside foo before eval.....
CLK=1
reset=0
OUT=136

Inside foo after eval.....
CLK=1
reset=0
OUT=136
=============fahr_rvmyth : New Iteration===========
Instance : 0

Inside foo before eval.....
CLK=1
reset=0
OUT=136

Inside foo after eval.....
CLK=0
reset=0
OUT=136
=============fahr_rvmyth : New Iteration===========
Instance : 0

Inside foo before eval.....
CLK=0
reset=0
OUT=136

Inside foo after eval.....
CLK=1
reset=0
OUT=136
=============fahr_rvmyth : New Iteration===========
Instance : 0

Inside foo before eval.....
CLK=1
reset=0
OUT=136

Inside foo after eval.....
CLK=1
reset=0
OUT=136
=============fahr_rvmyth : New Iteration===========
Instance : 0

Inside foo before eval.....
CLK=1
reset=0
OUT=136

Inside foo after eval.....
CLK=0
reset=0
OUT=136
=============fahr_rvmyth : New Iteration===========
Instance : 0

Inside foo before eval.....
CLK=0
reset=0
OUT=136

Inside foo after eval.....
CLK=1
reset=0
OUT=136
=============fahr_rvmyth : New Iteration===========
Instance : 0

Inside foo before eval.....
CLK=1
reset=0
OUT=136

Inside foo after eval.....
CLK=1
reset=0
OUT=136
=============fahr_rvmyth : New Iteration===========
Instance : 0

Inside foo before eval.....
CLK=1
reset=0
OUT=136

Inside foo after eval.....
CLK=0
reset=0
OUT=136
=============fahr_rvmyth : New Iteration===========
Instance : 0

Inside foo before eval.....
CLK=0
reset=0
OUT=136

Inside foo after eval.....
CLK=1
reset=0
OUT=136
=============fahr_rvmyth : New Iteration===========
Instance : 0

Inside foo before eval.....
CLK=1
reset=0
OUT=136

Inside foo after eval.....
CLK=1
reset=0
OUT=136
=============fahr_rvmyth : New Iteration===========
Instance : 0

Inside foo before eval.....
CLK=1
reset=0
OUT=136

Inside foo after eval.....
CLK=0
reset=0
OUT=136
=============fahr_rvmyth : New Iteration===========
Instance : 0

Inside foo before eval.....
CLK=0
reset=0
OUT=136

Inside foo after eval.....
CLK=1
reset=0
OUT=153
=============fahr_rvmyth : New Iteration===========
Instance : 0

Inside foo before eval.....
CLK=1
reset=0
OUT=153

Inside foo after eval.....
CLK=1
reset=0
OUT=153
=============fahr_rvmyth : New Iteration===========
Instance : 0

Inside foo before eval.....
CLK=1
reset=0
OUT=153

Inside foo after eval.....
CLK=0
reset=0
OUT=153
=============fahr_rvmyth : New Iteration===========
Instance : 0

Inside foo before eval.....
CLK=0
reset=0
OUT=153

Inside foo after eval.....
CLK=1
reset=0
OUT=153
=============fahr_rvmyth : New Iteration===========
Instance : 0

Inside foo before eval.....
CLK=1
reset=0
OUT=153

Inside foo after eval.....
CLK=1
reset=0
OUT=153
=============fahr_rvmyth : New Iteration===========
Instance : 0

Inside foo before eval.....
CLK=1
reset=0
OUT=153

Inside foo after eval.....
CLK=0
reset=0
OUT=153
=============fahr_rvmyth : New Iteration===========
Instance : 0

Inside foo before eval.....
CLK=0
reset=0
OUT=153

Inside foo after eval.....
CLK=1
reset=0
OUT=153
=============fahr_rvmyth : New Iteration===========
Instance : 0

Inside foo before eval.....
CLK=1
reset=0
OUT=153

Inside foo after eval.....
CLK=1
reset=0
OUT=153
=============fahr_rvmyth : New Iteration===========
Instance : 0

Inside foo before eval.....
CLK=1
reset=0
OUT=153

Inside foo after eval.....
CLK=0
reset=0
OUT=153
=============fahr_rvmyth : New Iteration===========
Instance : 0

Inside foo before eval.....
CLK=0
reset=0
OUT=153

Inside foo after eval.....
CLK=1
reset=0
OUT=153
=============fahr_rvmyth : New Iteration===========
Instance : 0

Inside foo before eval.....
CLK=1
reset=0
OUT=153

Inside foo after eval.....
CLK=1
reset=0
OUT=153
=============fahr_rvmyth : New Iteration===========
Instance : 0

Inside foo before eval.....
CLK=1
reset=0
OUT=153

Inside foo after eval.....
CLK=0
reset=0
OUT=153
=============fahr_rvmyth : New Iteration===========
Instance : 0

Inside foo before eval.....
CLK=0
reset=0
OUT=153

Inside foo after eval.....
CLK=1
reset=0
OUT=153
=============fahr_rvmyth : New Iteration===========
Instance : 0

Inside foo before eval.....
CLK=1
reset=0
OUT=153

Inside foo after eval.....
CLK=1
reset=0
OUT=153
=============fahr_rvmyth : New Iteration===========
Instance : 0

Inside foo before eval.....
CLK=1
reset=0
OUT=153

Inside foo after eval.....
CLK=0
reset=0
OUT=153
=============fahr_rvmyth : New Iteration===========
Instance : 0

Inside foo before eval.....
CLK=0
reset=0
OUT=153

Inside foo after eval.....
CLK=1
reset=0
OUT=171
=============fahr_rvmyth : New Iteration===========
Instance : 0

Inside foo before eval.....
CLK=1
reset=0
OUT=171

Inside foo after eval.....
CLK=1
reset=0
OUT=171
=============fahr_rvmyth : New Iteration===========
Instance : 0

Inside foo before eval.....
CLK=1
reset=0
OUT=171

Inside foo after eval.....
CLK=0
reset=0
OUT=171
=============fahr_rvmyth : New Iteration===========
Instance : 0

Inside foo before eval.....
CLK=0
reset=0
OUT=171

Inside foo after eval.....
CLK=1
reset=0
OUT=171
=============fahr_rvmyth : New Iteration===========
Instance : 0

Inside foo before eval.....
CLK=1
reset=0
OUT=171

Inside foo after eval.....
CLK=1
reset=0
OUT=171
=============fahr_rvmyth : New Iteration===========
Instance : 0

Inside foo before eval.....
CLK=1
reset=0
OUT=171

Inside foo after eval.....
CLK=0
reset=0
OUT=171
=============fahr_rvmyth : New Iteration===========
Instance : 0

Inside foo before eval.....
CLK=0
reset=0
OUT=171

Inside foo after eval.....
CLK=1
reset=0
OUT=171
=============fahr_rvmyth : New Iteration===========
Instance : 0

Inside foo before eval.....
CLK=1
reset=0
OUT=171

Inside foo after eval.....
CLK=1
reset=0
OUT=171
=============fahr_rvmyth : New Iteration===========
Instance : 0

Inside foo before eval.....
CLK=1
reset=0
OUT=171

Inside foo after eval.....
CLK=0
reset=0
OUT=171
=============fahr_rvmyth : New Iteration===========
Instance : 0

Inside foo before eval.....
CLK=0
reset=0
OUT=171

Inside foo after eval.....
CLK=1
reset=0
OUT=171
=============fahr_rvmyth : New Iteration===========
Instance : 0

Inside foo before eval.....
CLK=1
reset=0
OUT=171

Inside foo after eval.....
CLK=1
reset=0
OUT=171
=============fahr_rvmyth : New Iteration===========
Instance : 0

Inside foo before eval.....
CLK=1
reset=0
OUT=171

Inside foo after eval.....
CLK=0
reset=0
OUT=171
=============fahr_rvmyth : New Iteration===========
Instance : 0

Inside foo before eval.....
CLK=0
reset=0
OUT=171

Inside foo after eval.....
CLK=1
reset=0
OUT=171
=============fahr_rvmyth : New Iteration===========
Instance : 0

Inside foo before eval.....
CLK=1
reset=0
OUT=171

Inside foo after eval.....
CLK=1
reset=0
OUT=171
=============fahr_rvmyth : New Iteration===========
Instance : 0

Inside foo before eval.....
CLK=1
reset=0
OUT=171

Inside foo after eval.....
CLK=0
reset=0
OUT=171
=============fahr_rvmyth : New Iteration===========
Instance : 0

Inside foo before eval.....
CLK=0
reset=0
OUT=171

Inside foo after eval.....
CLK=1
reset=0
OUT=190
=============fahr_rvmyth : New Iteration===========
Instance : 0

Inside foo before eval.....
CLK=1
reset=0
OUT=190

Inside foo after eval.....
CLK=1
reset=0
OUT=190
=============fahr_rvmyth : New Iteration===========
Instance : 0

Inside foo before eval.....
CLK=1
reset=0
OUT=190

Inside foo after eval.....
CLK=0
reset=0
OUT=190
=============fahr_rvmyth : New Iteration===========
Instance : 0

Inside foo before eval.....
CLK=0
reset=0
OUT=190

Inside foo after eval.....
CLK=1
reset=0
OUT=190
=============fahr_rvmyth : New Iteration===========
Instance : 0

Inside foo before eval.....
CLK=1
reset=0
OUT=190

Inside foo after eval.....
CLK=1
reset=0
OUT=190
=============fahr_rvmyth : New Iteration===========
Instance : 0

Inside foo before eval.....
CLK=1
reset=0
OUT=190

Inside foo after eval.....
CLK=0
reset=0
OUT=190
=============fahr_rvmyth : New Iteration===========
Instance : 0

Inside foo before eval.....
CLK=0
reset=0
OUT=190

Inside foo after eval.....
CLK=1
reset=0
OUT=190
=============fahr_rvmyth : New Iteration===========
Instance : 0

Inside foo before eval.....
CLK=1
reset=0
OUT=190

Inside foo after eval.....
CLK=1
reset=0
OUT=190
=============fahr_rvmyth : New Iteration===========
Instance : 0

Inside foo before eval.....
CLK=1
reset=0
OUT=190

Inside foo after eval.....
CLK=0
reset=0
OUT=190
=============fahr_rvmyth : New Iteration===========
Instance : 0

Inside foo before eval.....
CLK=0
reset=0
OUT=190

Inside foo after eval.....
CLK=1
reset=0
OUT=190
=============fahr_rvmyth : New Iteration===========
Instance : 0

Inside foo before eval.....
CLK=1
reset=0
OUT=190

Inside foo after eval.....
CLK=1
reset=0
OUT=190
=============fahr_rvmyth : New Iteration===========
Instance : 0

Inside foo before eval.....
CLK=1
reset=0
OUT=190

Inside foo after eval.....
CLK=0
reset=0
OUT=190
=============fahr_rvmyth : New Iteration===========
Instance : 0

Inside foo before eval.....
CLK=0
reset=0
OUT=190

Inside foo after eval.....
CLK=1
reset=0
OUT=190
=============fahr_rvmyth : New Iteration===========
Instance : 0

Inside foo before eval.....
CLK=1
reset=0
OUT=190

Inside foo after eval.....
CLK=1
reset=0
OUT=190
=============fahr_rvmyth : New Iteration===========
Instance : 0

Inside foo before eval.....
CLK=1
reset=0
OUT=190

Inside foo after eval.....
CLK=0
reset=0
OUT=190
=============fahr_rvmyth : New Iteration===========
Instance : 0

Inside foo before eval.....
CLK=0
reset=0
OUT=190

Inside foo after eval.....
CLK=1
reset=0
OUT=210
=============fahr_rvmyth : New Iteration===========
Instance : 0

Inside foo before eval.....
CLK=1
reset=0
OUT=210

Inside foo after eval.....
CLK=1
reset=0
OUT=210
=============fahr_rvmyth : New Iteration===========
Instance : 0

Inside foo before eval.....
CLK=1
reset=0
OUT=210

Inside foo after eval.....
CLK=0
reset=0
OUT=210
=============fahr_rvmyth : New Iteration===========
Instance : 0

Inside foo before eval.....
CLK=0
reset=0
OUT=210

Inside foo after eval.....
CLK=1
reset=0
OUT=210
=============fahr_rvmyth : New Iteration===========
Instance : 0

Inside foo before eval.....
CLK=1
reset=0
OUT=210

Inside foo after eval.....
CLK=1
reset=0
OUT=210
=============fahr_rvmyth : New Iteration===========
Instance : 0

Inside foo before eval.....
CLK=1
reset=0
OUT=210

Inside foo after eval.....
CLK=0
reset=0
OUT=210
=============fahr_rvmyth : New Iteration===========
Instance : 0

Inside foo before eval.....
CLK=0
reset=0
OUT=210

Inside foo after eval.....
CLK=1
reset=0
OUT=210
=============fahr_rvmyth : New Iteration===========
Instance : 0

Inside foo before eval.....
CLK=1
reset=0
OUT=210

Inside foo after eval.....
CLK=1
reset=0
OUT=210
=============fahr_rvmyth : New Iteration===========
Instance : 0

Inside foo before eval.....
CLK=1
reset=0
OUT=210

Inside foo after eval.....
CLK=0
reset=0
OUT=210
=============fahr_rvmyth : New Iteration===========
Instance : 0

Inside foo before eval.....
CLK=0
reset=0
OUT=210

Inside foo after eval.....
CLK=1
reset=0
OUT=210
=============fahr_rvmyth : New Iteration===========
Instance : 0

Inside foo before eval.....
CLK=1
reset=0
OUT=210

Inside foo after eval.....
CLK=1
reset=0
OUT=210
=============fahr_rvmyth : New Iteration===========
Instance : 0

Inside foo before eval.....
CLK=1
reset=0
OUT=210

Inside foo after eval.....
CLK=0
reset=0
OUT=210
=============fahr_rvmyth : New Iteration===========
Instance : 0

Inside foo before eval.....
CLK=0
reset=0
OUT=210

Inside foo after eval.....
CLK=1
reset=0
OUT=210
=============fahr_rvmyth : New Iteration===========
Instance : 0

Inside foo before eval.....
CLK=1
reset=0
OUT=210

Inside foo after eval.....
CLK=1
reset=0
OUT=210
=============fahr_rvmyth : New Iteration===========
Instance : 0

Inside foo before eval.....
CLK=1
reset=0
OUT=210

Inside foo after eval.....
CLK=0
reset=0
OUT=210
=============fahr_rvmyth : New Iteration===========
Instance : 0

Inside foo before eval.....
CLK=0
reset=0
OUT=210

Inside foo after eval.....
CLK=1
reset=0
OUT=231
=============fahr_rvmyth : New Iteration===========
Instance : 0

Inside foo before eval.....
CLK=1
reset=0
OUT=231

Inside foo after eval.....
CLK=1
reset=0
OUT=231
=============fahr_rvmyth : New Iteration===========
Instance : 0

Inside foo before eval.....
CLK=1
reset=0
OUT=231

Inside foo after eval.....
CLK=0
reset=0
OUT=231
=============fahr_rvmyth : New Iteration===========
Instance : 0

Inside foo before eval.....
CLK=0
reset=0
OUT=231

Inside foo after eval.....
CLK=1
reset=0
OUT=231
=============fahr_rvmyth : New Iteration===========
Instance : 0

Inside foo before eval.....
CLK=1
reset=0
OUT=231

Inside foo after eval.....
CLK=1
reset=0
OUT=231
=============fahr_rvmyth : New Iteration===========
Instance : 0

Inside foo before eval.....
CLK=1
reset=0
OUT=231

Inside foo after eval.....
CLK=0
reset=0
OUT=231
=============fahr_rvmyth : New Iteration===========
Instance : 0

Inside foo before eval.....
CLK=0
reset=0
OUT=231

Inside foo after eval.....
CLK=1
reset=0
OUT=231
=============fahr_rvmyth : New Iteration===========
Instance : 0

Inside foo before eval.....
CLK=1
reset=0
OUT=231

Inside foo after eval.....
CLK=1
reset=0
OUT=231
=============fahr_rvmyth : New Iteration===========
Instance : 0

Inside foo before eval.....
CLK=1
reset=0
OUT=231

Inside foo after eval.....
CLK=0
reset=0
OUT=231
=============fahr_rvmyth : New Iteration===========
Instance : 0

Inside foo before eval.....
CLK=0
reset=0
OUT=231

Inside foo after eval.....
CLK=1
reset=0
OUT=231
=============fahr_rvmyth : New Iteration===========
Instance : 0

Inside foo before eval.....
CLK=1
reset=0
OUT=231

Inside foo after eval.....
CLK=1
reset=0
OUT=231
=============fahr_rvmyth : New Iteration===========
Instance : 0

Inside foo before eval.....
CLK=1
reset=0
OUT=231

Inside foo after eval.....
CLK=0
reset=0
OUT=231
=============fahr_rvmyth : New Iteration===========
Instance : 0

Inside foo before eval.....
CLK=0
reset=0
OUT=231

Inside foo after eval.....
CLK=1
reset=0
OUT=231
=============fahr_rvmyth : New Iteration===========
Instance : 0

Inside foo before eval.....
CLK=1
reset=0
OUT=231

Inside foo after eval.....
CLK=1
reset=0
OUT=231
=============fahr_rvmyth : New Iteration===========
Instance : 0

Inside foo before eval.....
CLK=1
reset=0
OUT=231

Inside foo after eval.....
CLK=0
reset=0
OUT=231
=============fahr_rvmyth : New Iteration===========
Instance : 0

Inside foo before eval.....
CLK=0
reset=0
OUT=231

Inside foo after eval.....
CLK=1
reset=0
OUT=253
=============fahr_rvmyth : New Iteration===========
Instance : 0

Inside foo before eval.....
CLK=1
reset=0
OUT=253

Inside foo after eval.....
CLK=1
reset=0
OUT=253
=============fahr_rvmyth : New Iteration===========
Instance : 0

Inside foo before eval.....
CLK=1
reset=0
OUT=253

Inside foo after eval.....
CLK=0
reset=0
OUT=253
=============fahr_rvmyth : New Iteration===========
Instance : 0

Inside foo before eval.....
CLK=0
reset=0
OUT=253

Inside foo after eval.....
CLK=1
reset=0
OUT=253
=============fahr_rvmyth : New Iteration===========
Instance : 0

Inside foo before eval.....
CLK=1
reset=0
OUT=253

Inside foo after eval.....
CLK=1
reset=0
OUT=253
=============fahr_rvmyth : New Iteration===========
Instance : 0

Inside foo before eval.....
CLK=1
reset=0
OUT=253

Inside foo after eval.....
CLK=0
reset=0
OUT=253
=============fahr_rvmyth : New Iteration===========
Instance : 0

Inside foo before eval.....
CLK=0
reset=0
OUT=253

Inside foo after eval.....
CLK=1
reset=0
OUT=253
=============fahr_rvmyth : New Iteration===========
Instance : 0

Inside foo before eval.....
CLK=1
reset=0
OUT=253

Inside foo after eval.....
CLK=1
reset=0
OUT=253
=============fahr_rvmyth : New Iteration===========
Instance : 0

Inside foo before eval.....
CLK=1
reset=0
OUT=253

Inside foo after eval.....
CLK=0
reset=0
OUT=253
=============fahr_rvmyth : New Iteration===========
Instance : 0

Inside foo before eval.....
CLK=0
reset=0
OUT=253

Inside foo after eval.....
CLK=1
reset=0
OUT=253
=============fahr_rvmyth : New Iteration===========
Instance : 0

Inside foo before eval.....
CLK=1
reset=0
OUT=253

Inside foo after eval.....
CLK=1
reset=0
OUT=253
=============fahr_rvmyth : New Iteration===========
Instance : 0

Inside foo before eval.....
CLK=1
reset=0
OUT=253

Inside foo after eval.....
CLK=0
reset=0
OUT=253
=============fahr_rvmyth : New Iteration===========
Instance : 0

Inside foo before eval.....
CLK=0
reset=0
OUT=253

Inside foo after eval.....
CLK=1
reset=0
OUT=253
=============fahr_rvmyth : New Iteration===========
Instance : 0

Inside foo before eval.....
CLK=1
reset=0
OUT=253

Inside foo after eval.....
CLK=1
reset=0
OUT=253
=============fahr_rvmyth : New Iteration===========
Instance : 0

Inside foo before eval.....
CLK=1
reset=0
OUT=253

Inside foo after eval.....
CLK=0
reset=0
OUT=253
=============fahr_rvmyth : New Iteration===========
Instance : 0

Inside foo before eval.....
CLK=0
reset=0
OUT=253

Inside foo after eval.....
CLK=1
reset=0
OUT=276
=============fahr_rvmyth : New Iteration===========
Instance : 0

Inside foo before eval.....
CLK=1
reset=0
OUT=276

Inside foo after eval.....
CLK=1
reset=0
OUT=276
=============fahr_rvmyth : New Iteration===========
Instance : 0

Inside foo before eval.....
CLK=1
reset=0
OUT=276

Inside foo after eval.....
CLK=0
reset=0
OUT=276
=============fahr_rvmyth : New Iteration===========
Instance : 0

Inside foo before eval.....
CLK=0
reset=0
OUT=276

Inside foo after eval.....
CLK=1
reset=0
OUT=276
=============fahr_rvmyth : New Iteration===========
Instance : 0

Inside foo before eval.....
CLK=1
reset=0
OUT=276

Inside foo after eval.....
CLK=1
reset=0
OUT=276
=============fahr_rvmyth : New Iteration===========
Instance : 0

Inside foo before eval.....
CLK=1
reset=0
OUT=276

Inside foo after eval.....
CLK=0
reset=0
OUT=276
=============fahr_rvmyth : New Iteration===========
Instance : 0

Inside foo before eval.....
CLK=0
reset=0
OUT=276

Inside foo after eval.....
CLK=1
reset=0
OUT=276
=============fahr_rvmyth : New Iteration===========
Instance : 0

Inside foo before eval.....
CLK=1
reset=0
OUT=276

Inside foo after eval.....
CLK=1
reset=0
OUT=276
=============fahr_rvmyth : New Iteration===========
Instance : 0

Inside foo before eval.....
CLK=1
reset=0
OUT=276

Inside foo after eval.....
CLK=0
reset=0
OUT=276
=============fahr_rvmyth : New Iteration===========
Instance : 0

Inside foo before eval.....
CLK=0
reset=0
OUT=276

Inside foo after eval.....
CLK=1
reset=0
OUT=276
=============fahr_rvmyth : New Iteration===========
Instance : 0

Inside foo before eval.....
CLK=1
reset=0
OUT=276

Inside foo after eval.....
CLK=1
reset=0
OUT=276
=============fahr_rvmyth : New Iteration===========
Instance : 0

Inside foo before eval.....
CLK=1
reset=0
OUT=276

Inside foo after eval.....
CLK=0
reset=0
OUT=276
=============fahr_rvmyth : New Iteration===========
Instance : 0

Inside foo before eval.....
CLK=0
reset=0
OUT=276

Inside foo after eval.....
CLK=1
reset=0
OUT=276
=============fahr_rvmyth : New Iteration===========
Instance : 0

Inside foo before eval.....
CLK=1
reset=0
OUT=276

Inside foo after eval.....
CLK=1
reset=0
OUT=276
=============fahr_rvmyth : New Iteration===========
Instance : 0

Inside foo before eval.....
CLK=1
reset=0
OUT=276

Inside foo after eval.....
CLK=0
reset=0
OUT=276
=============fahr_rvmyth : New Iteration===========
Instance : 0

Inside foo before eval.....
CLK=0
reset=0
OUT=276

Inside foo after eval.....
CLK=1
reset=0
OUT=300
=============fahr_rvmyth : New Iteration===========
Instance : 0

Inside foo before eval.....
CLK=1
reset=0
OUT=300

Inside foo after eval.....
CLK=1
reset=0
OUT=300
=============fahr_rvmyth : New Iteration===========
Instance : 0

Inside foo before eval.....
CLK=1
reset=0
OUT=300

Inside foo after eval.....
CLK=0
reset=0
OUT=300
=============fahr_rvmyth : New Iteration===========
Instance : 0

Inside foo before eval.....
CLK=0
reset=0
OUT=300

Inside foo after eval.....
CLK=1
reset=0
OUT=300
=============fahr_rvmyth : New Iteration===========
Instance : 0

Inside foo before eval.....
CLK=1
reset=0
OUT=300

Inside foo after eval.....
CLK=1
reset=0
OUT=300
=============fahr_rvmyth : New Iteration===========
Instance : 0

Inside foo before eval.....
CLK=1
reset=0
OUT=300

Inside foo after eval.....
CLK=0
reset=0
OUT=300
=============fahr_rvmyth : New Iteration===========
Instance : 0

Inside foo before eval.....
CLK=0
reset=0
OUT=300

Inside foo after eval.....
CLK=1
reset=0
OUT=300
=============fahr_rvmyth : New Iteration===========
Instance : 0

Inside foo before eval.....
CLK=1
reset=0
OUT=300

Inside foo after eval.....
CLK=1
reset=0
OUT=300
=============fahr_rvmyth : New Iteration===========
Instance : 0

Inside foo before eval.....
CLK=1
reset=0
OUT=300

Inside foo after eval.....
CLK=0
reset=0
OUT=300
=============fahr_rvmyth : New Iteration===========
Instance : 0

Inside foo before eval.....
CLK=0
reset=0
OUT=300

Inside foo after eval.....
CLK=1
reset=0
OUT=300
=============fahr_rvmyth : New Iteration===========
Instance : 0

Inside foo before eval.....
CLK=1
reset=0
OUT=300

Inside foo after eval.....
CLK=1
reset=0
OUT=300
=============fahr_rvmyth : New Iteration===========
Instance : 0

Inside foo before eval.....
CLK=1
reset=0
OUT=300

Inside foo after eval.....
CLK=0
reset=0
OUT=300
=============fahr_rvmyth : New Iteration===========
Instance : 0

Inside foo before eval.....
CLK=0
reset=0
OUT=300

Inside foo after eval.....
CLK=1
reset=0
OUT=300
=============fahr_rvmyth : New Iteration===========
Instance : 0

Inside foo before eval.....
CLK=1
reset=0
OUT=300

Inside foo after eval.....
CLK=1
reset=0
OUT=300
=============fahr_rvmyth : New Iteration===========
Instance : 0

Inside foo before eval.....
CLK=1
reset=0
OUT=300

Inside foo after eval.....
CLK=0
reset=0
OUT=300
=============fahr_rvmyth : New Iteration===========
Instance : 0

Inside foo before eval.....
CLK=0
reset=0
OUT=300

Inside foo after eval.....
CLK=1
reset=0
OUT=325
=============fahr_rvmyth : New Iteration===========
Instance : 0

Inside foo before eval.....
CLK=1
reset=0
OUT=325

Inside foo after eval.....
CLK=1
reset=0
OUT=325
=============fahr_rvmyth : New Iteration===========
Instance : 0

Inside foo before eval.....
CLK=1
reset=0
OUT=325

Inside foo after eval.....
CLK=0
reset=0
OUT=325
=============fahr_rvmyth : New Iteration===========
Instance : 0

Inside foo before eval.....
CLK=0
reset=0
OUT=325

Inside foo after eval.....
CLK=1
reset=0
OUT=325
=============fahr_rvmyth : New Iteration===========
Instance : 0

Inside foo before eval.....
CLK=1
reset=0
OUT=325

Inside foo after eval.....
CLK=1
reset=0
OUT=325
=============fahr_rvmyth : New Iteration===========
Instance : 0

Inside foo before eval.....
CLK=1
reset=0
OUT=325

Inside foo after eval.....
CLK=0
reset=0
OUT=325
=============fahr_rvmyth : New Iteration===========
Instance : 0

Inside foo before eval.....
CLK=0
reset=0
OUT=325

Inside foo after eval.....
CLK=1
reset=0
OUT=325
=============fahr_rvmyth : New Iteration===========
Instance : 0

Inside foo before eval.....
CLK=1
reset=0
OUT=325

Inside foo after eval.....
CLK=1
reset=0
OUT=325
=============fahr_rvmyth : New Iteration===========
Instance : 0

Inside foo before eval.....
CLK=1
reset=0
OUT=325

Inside foo after eval.....
CLK=0
reset=0
OUT=325
=============fahr_rvmyth : New Iteration===========
Instance : 0

Inside foo before eval.....
CLK=0
reset=0
OUT=325

Inside foo after eval.....
CLK=1
reset=0
OUT=325
=============fahr_rvmyth : New Iteration===========
Instance : 0

Inside foo before eval.....
CLK=1
reset=0
OUT=325

Inside foo after eval.....
CLK=1
reset=0
OUT=325
=============fahr_rvmyth : New Iteration===========
Instance : 0

Inside foo before eval.....
CLK=1
reset=0
OUT=325

Inside foo after eval.....
CLK=0
reset=0
OUT=325
=============fahr_rvmyth : New Iteration===========
Instance : 0

Inside foo before eval.....
CLK=0
reset=0
OUT=325

Inside foo after eval.....
CLK=1
reset=0
OUT=325
=============fahr_rvmyth : New Iteration===========
Instance : 0

Inside foo before eval.....
CLK=1
reset=0
OUT=325

Inside foo after eval.....
CLK=1
reset=0
OUT=325
=============fahr_rvmyth : New Iteration===========
Instance : 0

Inside foo before eval.....
CLK=1
reset=0
OUT=325

Inside foo after eval.....
CLK=0
reset=0
OUT=325
=============fahr_rvmyth : New Iteration===========
Instance : 0

Inside foo before eval.....
CLK=0
reset=0
OUT=325

Inside foo after eval.....
CLK=1
reset=0
OUT=351
=============fahr_rvmyth : New Iteration===========
Instance : 0

Inside foo before eval.....
CLK=1
reset=0
OUT=351

Inside foo after eval.....
CLK=1
reset=0
OUT=351
=============fahr_rvmyth : New Iteration===========
Instance : 0

Inside foo before eval.....
CLK=1
reset=0
OUT=351

Inside foo after eval.....
CLK=0
reset=0
OUT=351
=============fahr_rvmyth : New Iteration===========
Instance : 0

Inside foo before eval.....
CLK=0
reset=0
OUT=351

Inside foo after eval.....
CLK=1
reset=0
OUT=351
=============fahr_rvmyth : New Iteration===========
Instance : 0

Inside foo before eval.....
CLK=1
reset=0
OUT=351

Inside foo after eval.....
CLK=1
reset=0
OUT=351
=============fahr_rvmyth : New Iteration===========
Instance : 0

Inside foo before eval.....
CLK=1
reset=0
OUT=351

Inside foo after eval.....
CLK=0
reset=0
OUT=351
=============fahr_rvmyth : New Iteration===========
Instance : 0

Inside foo before eval.....
CLK=0
reset=0
OUT=351

Inside foo after eval.....
CLK=1
reset=0
OUT=351
=============fahr_rvmyth : New Iteration===========
Instance : 0

Inside foo before eval.....
CLK=1
reset=0
OUT=351

Inside foo after eval.....
CLK=1
reset=0
OUT=351
=============fahr_rvmyth : New Iteration===========
Instance : 0

Inside foo before eval.....
CLK=1
reset=0
OUT=351

Inside foo after eval.....
CLK=0
reset=0
OUT=351
=============fahr_rvmyth : New Iteration===========
Instance : 0

Inside foo before eval.....
CLK=0
reset=0
OUT=351

Inside foo after eval.....
CLK=1
reset=0
OUT=351
=============fahr_rvmyth : New Iteration===========
Instance : 0

Inside foo before eval.....
CLK=1
reset=0
OUT=351

Inside foo after eval.....
CLK=1
reset=0
OUT=351
=============fahr_rvmyth : New Iteration===========
Instance : 0

Inside foo before eval.....
CLK=1
reset=0
OUT=351

Inside foo after eval.....
CLK=0
reset=0
OUT=351
=============fahr_rvmyth : New Iteration===========
Instance : 0

Inside foo before eval.....
CLK=0
reset=0
OUT=351

Inside foo after eval.....
CLK=1
reset=0
OUT=351
=============fahr_rvmyth : New Iteration===========
Instance : 0

Inside foo before eval.....
CLK=1
reset=0
OUT=351

Inside foo after eval.....
CLK=1
reset=0
OUT=351
=============fahr_rvmyth : New Iteration===========
Instance : 0

Inside foo before eval.....
CLK=1
reset=0
OUT=351

Inside foo after eval.....
CLK=0
reset=0
OUT=351
=============fahr_rvmyth : New Iteration===========
Instance : 0

Inside foo before eval.....
CLK=0
reset=0
OUT=351

Inside foo after eval.....
CLK=1
reset=0
OUT=378
=============fahr_rvmyth : New Iteration===========
Instance : 0

Inside foo before eval.....
CLK=1
reset=0
OUT=378

Inside foo after eval.....
CLK=1
reset=0
OUT=378
=============fahr_rvmyth : New Iteration===========
Instance : 0

Inside foo before eval.....
CLK=1
reset=0
OUT=378

Inside foo after eval.....
CLK=0
reset=0
OUT=378
=============fahr_rvmyth : New Iteration===========
Instance : 0

Inside foo before eval.....
CLK=0
reset=0
OUT=378

Inside foo after eval.....
CLK=1
reset=0
OUT=378
=============fahr_rvmyth : New Iteration===========
Instance : 0

Inside foo before eval.....
CLK=1
reset=0
OUT=378

Inside foo after eval.....
CLK=1
reset=0
OUT=378
=============fahr_rvmyth : New Iteration===========
Instance : 0

Inside foo before eval.....
CLK=1
reset=0
OUT=378

Inside foo after eval.....
CLK=0
reset=0
OUT=378
=============fahr_rvmyth : New Iteration===========
Instance : 0

Inside foo before eval.....
CLK=0
reset=0
OUT=378

Inside foo after eval.....
CLK=1
reset=0
OUT=378
=============fahr_rvmyth : New Iteration===========
Instance : 0

Inside foo before eval.....
CLK=1
reset=0
OUT=378

Inside foo after eval.....
CLK=1
reset=0
OUT=378
=============fahr_rvmyth : New Iteration===========
Instance : 0

Inside foo before eval.....
CLK=1
reset=0
OUT=378

Inside foo after eval.....
CLK=0
reset=0
OUT=378
=============fahr_rvmyth : New Iteration===========
Instance : 0

Inside foo before eval.....
CLK=0
reset=0
OUT=378

Inside foo after eval.....
CLK=1
reset=0
OUT=378
=============fahr_rvmyth : New Iteration===========
Instance : 0

Inside foo before eval.....
CLK=1
reset=0
OUT=378

Inside foo after eval.....
CLK=1
reset=0
OUT=378
=============fahr_rvmyth : New Iteration===========
Instance : 0

Inside foo before eval.....
CLK=1
reset=0
OUT=378

Inside foo after eval.....
CLK=0
reset=0
OUT=378
=============fahr_rvmyth : New Iteration===========
Instance : 0

Inside foo before eval.....
CLK=0
reset=0
OUT=378

Inside foo after eval.....
CLK=1
reset=0
OUT=378
=============fahr_rvmyth : New Iteration===========
Instance : 0

Inside foo before eval.....
CLK=1
reset=0
OUT=378

Inside foo after eval.....
CLK=1
reset=0
OUT=378
=============fahr_rvmyth : New Iteration===========
Instance : 0

Inside foo before eval.....
CLK=1
reset=0
OUT=378

Inside foo after eval.....
CLK=0
reset=0
OUT=378
=============fahr_rvmyth : New Iteration===========
Instance : 0

Inside foo before eval.....
CLK=0
reset=0
OUT=378

Inside foo after eval.....
CLK=1
reset=0
OUT=406
=============fahr_rvmyth : New Iteration===========
Instance : 0

Inside foo before eval.....
CLK=1
reset=0
OUT=406

Inside foo after eval.....
CLK=1
reset=0
OUT=406
=============fahr_rvmyth : New Iteration===========
Instance : 0

Inside foo before eval.....
CLK=1
reset=0
OUT=406

Inside foo after eval.....
CLK=0
reset=0
OUT=406
=============fahr_rvmyth : New Iteration===========
Instance : 0

Inside foo before eval.....
CLK=0
reset=0
OUT=406

Inside foo after eval.....
CLK=1
reset=0
OUT=406
=============fahr_rvmyth : New Iteration===========
Instance : 0

Inside foo before eval.....
CLK=1
reset=0
OUT=406

Inside foo after eval.....
CLK=1
reset=0
OUT=406
=============fahr_rvmyth : New Iteration===========
Instance : 0

Inside foo before eval.....
CLK=1
reset=0
OUT=406

Inside foo after eval.....
CLK=0
reset=0
OUT=406
=============fahr_rvmyth : New Iteration===========
Instance : 0

Inside foo before eval.....
CLK=0
reset=0
OUT=406

Inside foo after eval.....
CLK=1
reset=0
OUT=406
=============fahr_rvmyth : New Iteration===========
Instance : 0

Inside foo before eval.....
CLK=1
reset=0
OUT=406

Inside foo after eval.....
CLK=1
reset=0
OUT=406
=============fahr_rvmyth : New Iteration===========
Instance : 0

Inside foo before eval.....
CLK=1
reset=0
OUT=406

Inside foo after eval.....
CLK=0
reset=0
OUT=406
=============fahr_rvmyth : New Iteration===========
Instance : 0

Inside foo before eval.....
CLK=0
reset=0
OUT=406

Inside foo after eval.....
CLK=1
reset=0
OUT=406
=============fahr_rvmyth : New Iteration===========
Instance : 0

Inside foo before eval.....
CLK=1
reset=0
OUT=406

Inside foo after eval.....
CLK=1
reset=0
OUT=406
=============fahr_rvmyth : New Iteration===========
Instance : 0

Inside foo before eval.....
CLK=1
reset=0
OUT=406

Inside foo after eval.....
CLK=0
reset=0
OUT=406
=============fahr_rvmyth : New Iteration===========
Instance : 0

Inside foo before eval.....
CLK=0
reset=0
OUT=406

Inside foo after eval.....
CLK=1
reset=0
OUT=406
=============fahr_rvmyth : New Iteration===========
Instance : 0

Inside foo before eval.....
CLK=1
reset=0
OUT=406

Inside foo after eval.....
CLK=1
reset=0
OUT=406
=============fahr_rvmyth : New Iteration===========
Instance : 0

Inside foo before eval.....
CLK=1
reset=0
OUT=406

Inside foo after eval.....
CLK=0
reset=0
OUT=406
=============fahr_rvmyth : New Iteration===========
Instance : 0

Inside foo before eval.....
CLK=0
reset=0
OUT=406

Inside foo after eval.....
CLK=1
reset=0
OUT=435
=============fahr_rvmyth : New Iteration===========
Instance : 0

Inside foo before eval.....
CLK=1
reset=0
OUT=435

Inside foo after eval.....
CLK=1
reset=0
OUT=435
=============fahr_rvmyth : New Iteration===========
[...]
reset=0
OUT=190
=============fahr_rvmyth : New Iteration===========
Instance : 1

Inside foo before eval.....
CLK=1
reset=0
OUT=190

Inside foo after eval.....
CLK=1
reset=0
OUT=190
=============fahr_rvmyth : New Iteration===========
Instance : 1

Inside foo before eval.....
CLK=1
reset=0
OUT=190

Inside foo after eval.....
CLK=0
reset=0
OUT=190
=============fahr_rvmyth : New Iteration===========
Instance : 1

Inside foo before eval.....
CLK=0
reset=0
OUT=190

Inside foo after eval.....
CLK=1
reset=0
OUT=190
=============fahr_rvmyth : New Iteration===========
Instance : 1

Inside foo before eval.....
CLK=1
reset=0
OUT=190

Inside foo after eval.....
CLK=1
reset=0
OUT=190
=============fahr_rvmyth : New Iteration===========
Instance : 1

Inside foo before eval.....
CLK=1
reset=0
OUT=190

Inside foo after eval.....
CLK=0
reset=0
OUT=190
=============fahr_rvmyth : New Iteration===========
Instance : 1

Inside foo before eval.....
CLK=0
reset=0
OUT=190

Inside foo after eval.....
CLK=1
reset=0
OUT=190
=============fahr_rvmyth : New Iteration===========
Instance : 1

Inside foo before eval.....
CLK=1
reset=0
OUT=190

Inside foo after eval.....
CLK=1
reset=0
OUT=190
=============fahr_rvmyth : New Iteration===========
Instance : 1

Inside foo before eval.....
CLK=1
reset=0
OUT=190

Inside foo after eval.....
CLK=0
reset=0
OUT=190
=============fahr_rvmyth : New Iteration===========
Instance : 1

Inside foo before eval.....
CLK=0
reset=0
OUT=190

Inside foo after eval.....
CLK=1
reset=0
OUT=190
=============fahr_rvmyth : New Iteration===========
Instance : 1

Inside foo before eval.....
CLK=1
reset=0
OUT=190

Inside foo after eval.....
CLK=1
reset=0
OUT=190
=============fahr_rvmyth : New Iteration===========
Instance : 1

Inside foo before eval.....
CLK=1
reset=0
OUT=190

Inside foo after eval.....
CLK=0
reset=0
OUT=190
=============fahr_rvmyth : New Iteration===========
Instance : 1

Inside foo before eval.....
CLK=0
reset=0
OUT=190

Inside foo after eval.....
CLK=1
reset=0
OUT=190
=============fahr_rvmyth : New Iteration===========
Instance : 1

Inside foo before eval.....
CLK=1
reset=0
OUT=190

Inside foo after eval.....
CLK=1
reset=0
OUT=190
=============fahr_rvmyth : New Iteration===========
Instance : 1

Inside foo before eval.....
CLK=1
reset=0
OUT=190

Inside foo after eval.....
CLK=0
reset=0
OUT=190
=============fahr_rvmyth : New Iteration===========
Instance : 1

Inside foo before eval.....
CLK=0
reset=0
OUT=190

Inside foo after eval.....
CLK=1
reset=0
OUT=210
=============fahr_rvmyth : New Iteration===========
Instance : 1

Inside foo before eval.....
CLK=1
reset=0
OUT=210

Inside foo after eval.....
CLK=1
reset=0
OUT=210
=============fahr_rvmyth : New Iteration===========
Instance : 1

Inside foo before eval.....
CLK=1
reset=0
OUT=210

Inside foo after eval.....
CLK=0
reset=0
OUT=210
=============fahr_rvmyth : New Iteration===========
Instance : 1

Inside foo before eval.....
CLK=0
reset=0
OUT=210

Inside foo after eval.....
CLK=1
reset=0
OUT=210
=============fahr_rvmyth : New Iteration===========
Instance : 1

Inside foo before eval.....
CLK=1
reset=0
OUT=210

Inside foo after eval.....
CLK=1
reset=0
OUT=210
=============fahr_rvmyth : New Iteration===========
Instance : 1

Inside foo before eval.....
CLK=1
reset=0
OUT=210

Inside foo after eval.....
CLK=0
reset=0
OUT=210
=============fahr_rvmyth : New Iteration===========
Instance : 1

Inside foo before eval.....
CLK=0
reset=0
OUT=210

Inside foo after eval.....
CLK=1
reset=0
OUT=210
=============fahr_rvmyth : New Iteration===========
Instance : 1

Inside foo before eval.....
CLK=1
reset=0
OUT=210

Inside foo after eval.....
CLK=1
reset=0
OUT=210
=============fahr_rvmyth : New Iteration===========
Instance : 1

Inside foo before eval.....
CLK=1
reset=0
OUT=210

Inside foo after eval.....
CLK=0
reset=0
OUT=210
=============fahr_rvmyth : New Iteration===========
Instance : 1

Inside foo before eval.....
CLK=0
reset=0
OUT=210

Inside foo after eval.....
CLK=1
reset=0
OUT=210
=============fahr_rvmyth : New Iteration===========
Instance : 1

Inside foo before eval.....
CLK=1
reset=0
OUT=210

Inside foo after eval.....
CLK=1
reset=0
OUT=210
=============fahr_rvmyth : New Iteration===========
Instance : 1

Inside foo before eval.....
CLK=1
reset=0
OUT=210

Inside foo after eval.....
CLK=0
reset=0
OUT=210
=============fahr_rvmyth : New Iteration===========
Instance : 1

Inside foo before eval.....
CLK=0
reset=0
OUT=210

Inside foo after eval.....
CLK=1
reset=0
OUT=210
=============fahr_rvmyth : New Iteration===========
Instance : 1

Inside foo before eval.....
CLK=1
reset=0
OUT=210

Inside foo after eval.....
CLK=1
reset=0
OUT=210
=============fahr_rvmyth : New Iteration===========
Instance : 1

Inside foo before eval.....
CLK=1
reset=0
OUT=210

Inside foo after eval.....
CLK=0
reset=0
OUT=210
=============fahr_rvmyth : New Iteration===========
Instance : 1

Inside foo before eval.....
CLK=0
reset=0
OUT=210

Inside foo after eval.....
CLK=1
reset=0
OUT=231
=============fahr_rvmyth : New Iteration===========
Instance : 1

Inside foo before eval.....
CLK=1
reset=0
OUT=231

Inside foo after eval.....
CLK=1
reset=0
OUT=231
=============fahr_rvmyth : New Iteration===========
Instance : 1

Inside foo before eval.....
CLK=1
reset=0
OUT=231

Inside foo after eval.....
CLK=0
reset=0
OUT=231
=============fahr_rvmyth : New Iteration===========
Instance : 1

Inside foo before eval.....
CLK=0
reset=0
OUT=231

Inside foo after eval.....
CLK=1
reset=0
OUT=231
=============fahr_rvmyth : New Iteration===========
Instance : 1

Inside foo before eval.....
CLK=1
reset=0
OUT=231

Inside foo after eval.....
CLK=1
reset=0
OUT=231
=============fahr_rvmyth : New Iteration===========
Instance : 1

Inside foo before eval.....
CLK=1
reset=0
OUT=231

Inside foo after eval.....
CLK=0
reset=0
OUT=231
=============fahr_rvmyth : New Iteration===========
Instance : 1

Inside foo before eval.....
CLK=0
reset=0
OUT=231

Inside foo after eval.....
CLK=1
reset=0
OUT=231
=============fahr_rvmyth : New Iteration===========
Instance : 1

Inside foo before eval.....
CLK=1
reset=0
OUT=231

Inside foo after eval.....
CLK=1
reset=0
OUT=231
=============fahr_rvmyth : New Iteration===========
Instance : 1

Inside foo before eval.....
CLK=1
reset=0
OUT=231

Inside foo after eval.....
CLK=0
reset=0
OUT=231
=============fahr_rvmyth : New Iteration===========
Instance : 1

Inside foo before eval.....
CLK=0
reset=0
OUT=231

Inside foo after eval.....
CLK=1
reset=0
OUT=231
=============fahr_rvmyth : New Iteration===========
Instance : 1

Inside foo before eval.....
CLK=1
reset=0
OUT=231

Inside foo after eval.....
CLK=1
reset=0
OUT=231
=============fahr_rvmyth : New Iteration===========
Instance : 1

Inside foo before eval.....
CLK=1
reset=0
OUT=231

Inside foo after eval.....
CLK=0
reset=0
OUT=231
=============fahr_rvmyth : New Iteration===========
Instance : 1

Inside foo before eval.....
CLK=0
reset=0
OUT=231

Inside foo after eval.....
CLK=1
reset=0
OUT=231
=============fahr_rvmyth : New Iteration===========
Instance : 1

Inside foo before eval.....
CLK=1
reset=0
OUT=231

Inside foo after eval.....
CLK=1
reset=0
OUT=231
=============fahr_rvmyth : New Iteration===========
Instance : 1

Inside foo before eval.....
CLK=1
reset=0
OUT=231

Inside foo after eval.....
CLK=0
reset=0
OUT=231
=============fahr_rvmyth : New Iteration===========
Instance : 1

Inside foo before eval.....
CLK=0
reset=0
OUT=231

Inside foo after eval.....
CLK=1
reset=0
OUT=253
=============fahr_rvmyth : New Iteration===========
Instance : 1

Inside foo before eval.....
CLK=1
reset=0
OUT=253

Inside foo after eval.....
CLK=1
reset=0
OUT=253
=============fahr_rvmyth : New Iteration===========
Instance : 1

Inside foo before eval.....
CLK=1
reset=0
OUT=253

Inside foo after eval.....
CLK=0
reset=0
OUT=253
=============fahr_rvmyth : New Iteration===========
Instance : 1

Inside foo before eval.....
CLK=0
reset=0
OUT=253

Inside foo after eval.....
CLK=1
reset=0
OUT=253
=============fahr_rvmyth : New Iteration===========
Instance : 1

Inside foo before eval.....
CLK=1
reset=0
OUT=253

Inside foo after eval.....
CLK=1
reset=0
OUT=253
=============fahr_rvmyth : New Iteration===========
Instance : 1

Inside foo before eval.....
CLK=1
reset=0
OUT=253

Inside foo after eval.....
CLK=0
reset=0
OUT=253
=============fahr_rvmyth : New Iteration===========
Instance : 1

Inside foo before eval.....
CLK=0
reset=0
OUT=253

Inside foo after eval.....
CLK=1
reset=0
OUT=253
=============fahr_rvmyth : New Iteration===========
Instance : 1

Inside foo before eval.....
CLK=1
reset=0
OUT=253

Inside foo after eval.....
CLK=1
reset=0
OUT=253
=============fahr_rvmyth : New Iteration===========
Instance : 1

Inside foo before eval.....
CLK=1
reset=0
OUT=253

Inside foo after eval.....
CLK=0
reset=0
OUT=253
=============fahr_rvmyth : New Iteration===========
Instance : 1

Inside foo before eval.....
CLK=0
reset=0
OUT=253

Inside foo after eval.....
CLK=1
reset=0
OUT=253
=============fahr_rvmyth : New Iteration===========
Instance : 1

Inside foo before eval.....
CLK=1
reset=0
OUT=253

Inside foo after eval.....
CLK=1
reset=0
OUT=253
=============fahr_rvmyth : New Iteration===========
Instance : 1

Inside foo before eval.....
CLK=1
reset=0
OUT=253

Inside foo after eval.....
CLK=0
reset=0
OUT=253
=============fahr_rvmyth : New Iteration===========
Instance : 1

Inside foo before eval.....
CLK=0
reset=0
OUT=253

Inside foo after eval.....
CLK=1
reset=0
OUT=253
=============fahr_rvmyth : New Iteration===========
Instance : 1

Inside foo before eval.....
CLK=1
reset=0
OUT=253

Inside foo after eval.....
CLK=1
reset=0
OUT=253
=============fahr_rvmyth : New Iteration===========
Instance : 1

Inside foo before eval.....
CLK=1
reset=0
OUT=253

Inside foo after eval.....
CLK=0
reset=0
OUT=253
=============fahr_rvmyth : New Iteration===========
Instance : 1

Inside foo before eval.....
CLK=0
reset=0
OUT=253

Inside foo after eval.....
CLK=1
reset=0
OUT=276
=============fahr_rvmyth : New Iteration===========
Instance : 1

Inside foo before eval.....
CLK=1
reset=0
OUT=276

Inside foo after eval.....
CLK=1
reset=0
OUT=276
=============fahr_rvmyth : New Iteration===========
Instance : 1

Inside foo before eval.....
CLK=1
reset=0
OUT=276

Inside foo after eval.....
CLK=0
reset=0
OUT=276
=============fahr_rvmyth : New Iteration===========
Instance : 1

Inside foo before eval.....
CLK=0
reset=0
OUT=276

Inside foo after eval.....
CLK=1
reset=0
OUT=276
=============fahr_rvmyth : New Iteration===========
Instance : 1

Inside foo before eval.....
CLK=1
reset=0
OUT=276

Inside foo after eval.....
CLK=1
reset=0
OUT=276
=============fahr_rvmyth : New Iteration===========
Instance : 1

Inside foo before eval.....
CLK=1
reset=0
OUT=276

Inside foo after eval.....
CLK=0
reset=0
OUT=276
=============fahr_rvmyth : New Iteration===========
Instance : 1

Inside foo before eval.....
CLK=0
reset=0
OUT=276

Inside foo after eval.....
CLK=1
reset=0
OUT=276
=============fahr_rvmyth : New Iteration===========
Instance : 1

Inside foo before eval.....
CLK=1
reset=0
OUT=276

Inside foo after eval.....
CLK=1
reset=0
OUT=276
=============fahr_rvmyth : New Iteration===========
Instance : 1

Inside foo before eval.....
CLK=1
reset=0
OUT=276

Inside foo after eval.....
CLK=0
reset=0
OUT=276
=============fahr_rvmyth : New Iteration===========
Instance : 1

Inside foo before eval.....
CLK=0
reset=0
OUT=276

Inside foo after eval.....
CLK=1
reset=0
OUT=276
=============fahr_rvmyth : New Iteration===========
Instance : 1

Inside foo before eval.....
CLK=1
reset=0
OUT=276

Inside foo after eval.....
CLK=1
reset=0
OUT=276
=============fahr_rvmyth : New Iteration===========
Instance : 1

Inside foo before eval.....
CLK=1
reset=0
OUT=276

Inside foo after eval.....
CLK=0
reset=0
OUT=276
=============fahr_rvmyth : New Iteration===========
Instance : 1

Inside foo before eval.....
CLK=0
reset=0
OUT=276

Inside foo after eval.....
CLK=1
reset=0
OUT=276
=============fahr_rvmyth : New Iteration===========
Instance : 1

Inside foo before eval.....
CLK=1
reset=0
OUT=276

Inside foo after eval.....
CLK=1
reset=0
OUT=276
=============fahr_rvmyth : New Iteration===========
Instance : 1

Inside foo before eval.....
CLK=1
reset=0
OUT=276

Inside foo after eval.....
CLK=0
reset=0
OUT=276
=============fahr_rvmyth : New Iteration===========
Instance : 1

Inside foo before eval.....
CLK=0
reset=0
OUT=276

Inside foo after eval.....
CLK=1
reset=0
OUT=300
=============fahr_rvmyth : New Iteration===========
Instance : 1

Inside foo before eval.....
CLK=1
reset=0
OUT=300

Inside foo after eval.....
CLK=1
reset=0
OUT=300
=============fahr_rvmyth : New Iteration===========
Instance : 1

Inside foo before eval.....
CLK=1
reset=0
OUT=300

Inside foo after eval.....
CLK=0
reset=0
OUT=300
=============fahr_rvmyth : New Iteration===========
Instance : 1

Inside foo before eval.....
CLK=0
reset=0
OUT=300

Inside foo after eval.....
CLK=1
reset=0
OUT=300
=============fahr_rvmyth : New Iteration===========
Instance : 1

Inside foo before eval.....
CLK=1
reset=0
OUT=300

Inside foo after eval.....
CLK=1
reset=0
OUT=300
=============fahr_rvmyth : New Iteration===========
Instance : 1

Inside foo before eval.....
CLK=1
reset=0
OUT=300

Inside foo after eval.....
CLK=0
reset=0
OUT=300
=============fahr_rvmyth : New Iteration===========
Instance : 1

Inside foo before eval.....
CLK=0
reset=0
OUT=300

Inside foo after eval.....
CLK=1
reset=0
OUT=300
=============fahr_rvmyth : New Iteration===========
Instance : 1

Inside foo before eval.....
CLK=1
reset=0
OUT=300

Inside foo after eval.....
CLK=1
reset=0
OUT=300
=============fahr_rvmyth : New Iteration===========
Instance : 1

Inside foo before eval.....
CLK=1
reset=0
OUT=300

Inside foo after eval.....
CLK=0
reset=0
OUT=300
=============fahr_rvmyth : New Iteration===========
Instance : 1

Inside foo before eval.....
CLK=0
reset=0
OUT=300

Inside foo after eval.....
CLK=1
reset=0
OUT=300
=============fahr_rvmyth : New Iteration===========
Instance : 1

Inside foo before eval.....
CLK=1
reset=0
OUT=300

Inside foo after eval.....
CLK=1
reset=0
OUT=300
=============fahr_rvmyth : New Iteration===========
Instance : 1

Inside foo before eval.....
CLK=1
reset=0
OUT=300

Inside foo after eval.....
CLK=0
reset=0
OUT=300
=============fahr_rvmyth : New Iteration===========
Instance : 1

Inside foo before eval.....
CLK=0
reset=0
OUT=300

Inside foo after eval.....
CLK=1
reset=0
OUT=300
=============fahr_rvmyth : New Iteration===========
Instance : 1

Inside foo before eval.....
CLK=1
reset=0
OUT=300

Inside foo after eval.....
CLK=1
reset=0
OUT=300
=============fahr_rvmyth : New Iteration===========
Instance : 1

Inside foo before eval.....
CLK=1
reset=0
OUT=300

Inside foo after eval.....
CLK=0
reset=0
OUT=300
=============fahr_rvmyth : New Iteration===========
Instance : 1

Inside foo before eval.....
CLK=0
reset=0
OUT=300

Inside foo after eval.....
CLK=1
reset=0
OUT=325
=============fahr_rvmyth : New Iteration===========
Instance : 1

Inside foo before eval.....
CLK=1
reset=0
OUT=325

Inside foo after eval.....
CLK=1
reset=0
OUT=325
=============fahr_rvmyth : New Iteration===========
Instance : 1

Inside foo before eval.....
CLK=1
reset=0
OUT=325

Inside foo after eval.....
CLK=0
reset=0
OUT=325
=============fahr_rvmyth : New Iteration===========
Instance : 1

Inside foo before eval.....
CLK=0
reset=0
OUT=325

Inside foo after eval.....
CLK=1
reset=0
OUT=325
=============fahr_rvmyth : New Iteration===========
Instance : 1

Inside foo before eval.....
CLK=1
reset=0
OUT=325

Inside foo after eval.....
CLK=1
reset=0
OUT=325
=============fahr_rvmyth : New Iteration===========
Instance : 1

Inside foo before eval.....
CLK=1
reset=0
OUT=325

Inside foo after eval.....
CLK=0
reset=0
OUT=325
=============fahr_rvmyth : New Iteration===========
Instance : 1

Inside foo before eval.....
CLK=0
reset=0
OUT=325

Inside foo after eval.....
CLK=1
reset=0
OUT=325
=============fahr_rvmyth : New Iteration===========
Instance : 1

Inside foo before eval.....
CLK=1
reset=0
OUT=325

Inside foo after eval.....
CLK=1
reset=0
OUT=325
=============fahr_rvmyth : New Iteration===========
Instance : 1

Inside foo before eval.....
CLK=1
reset=0
OUT=325

Inside foo after eval.....
CLK=0
reset=0
OUT=325
=============fahr_rvmyth : New Iteration===========
Instance : 1

Inside foo before eval.....
CLK=0
reset=0
OUT=325

Inside foo after eval.....
CLK=1
reset=0
OUT=325
=============fahr_rvmyth : New Iteration===========
Instance : 1

Inside foo before eval.....
CLK=1
reset=0
OUT=325

Inside foo after eval.....
CLK=1
reset=0
OUT=325
=============fahr_rvmyth : New Iteration===========
Instance : 1

Inside foo before eval.....
CLK=1
reset=0
OUT=325

Inside foo after eval.....
CLK=0
reset=0
OUT=325
=============fahr_rvmyth : New Iteration===========
Instance : 1

Inside foo before eval.....
CLK=0
reset=0
OUT=325

Inside foo after eval.....
CLK=1
reset=0
OUT=325
=============fahr_rvmyth : New Iteration===========
Instance : 1

Inside foo before eval.....
CLK=1
reset=0
OUT=325

Inside foo after eval.....
CLK=1
reset=0
OUT=325
=============fahr_rvmyth : New Iteration===========
Instance : 1

Inside foo before eval.....
CLK=1
reset=0
OUT=325

Inside foo after eval.....
CLK=0
reset=0
OUT=325
=============fahr_rvmyth : New Iteration===========
Instance : 1

Inside foo before eval.....
CLK=0
reset=0
OUT=325

Inside foo after eval.....
CLK=1
reset=0
OUT=351
=============fahr_rvmyth : New Iteration===========
Instance : 1

Inside foo before eval.....
CLK=1
reset=0
OUT=351

Inside foo after eval.....
CLK=1
reset=0
OUT=351
=============fahr_rvmyth : New Iteration===========
Instance : 1

Inside foo before eval.....
CLK=1
reset=0
OUT=351

Inside foo after eval.....
CLK=0
reset=0
OUT=351
=============fahr_rvmyth : New Iteration===========
Instance : 1

Inside foo before eval.....
CLK=0
reset=0
OUT=351

Inside foo after eval.....
CLK=1
reset=0
OUT=351
=============fahr_rvmyth : New Iteration===========
Instance : 1

Inside foo before eval.....
CLK=1
reset=0
OUT=351

Inside foo after eval.....
CLK=1
reset=0
OUT=351
=============fahr_rvmyth : New Iteration===========
Instance : 1

Inside foo before eval.....
CLK=1
reset=0
OUT=351

Inside foo after eval.....
CLK=0
reset=0
OUT=351
=============fahr_rvmyth : New Iteration===========
Instance : 1

Inside foo before eval.....
CLK=0
reset=0
OUT=351

Inside foo after eval.....
CLK=1
reset=0
OUT=351
=============fahr_rvmyth : New Iteration===========
Instance : 1

Inside foo before eval.....
CLK=1
reset=0
OUT=351

Inside foo after eval.....
CLK=1
reset=0
OUT=351
=============fahr_rvmyth : New Iteration===========
Instance : 1

Inside foo before eval.....
CLK=1
reset=0
OUT=351

Inside foo after eval.....
CLK=0
reset=0
OUT=351
=============fahr_rvmyth : New Iteration===========
Instance : 1

Inside foo before eval.....
CLK=0
reset=0
OUT=351

Inside foo after eval.....
CLK=1
reset=0
OUT=351
=============fahr_rvmyth : New Iteration===========
Instance : 1

Inside foo before eval.....
CLK=1
reset=0
OUT=351

Inside foo after eval.....
CLK=1
reset=0
OUT=351
=============fahr_rvmyth : New Iteration===========
Instance : 1

Inside foo before eval.....
CLK=1
reset=0
OUT=351

Inside foo after eval.....
CLK=0
reset=0
OUT=351
=============fahr_rvmyth : New Iteration===========
Instance : 1

Inside foo before eval.....
CLK=0
reset=0
OUT=351

Inside foo after eval.....
CLK=1
reset=0
OUT=351
=============fahr_rvmyth : New Iteration===========
Instance : 1

Inside foo before eval.....
CLK=1
reset=0
OUT=351

Inside foo after eval.....
CLK=1
reset=0
OUT=351

No. of Data Rows : 106231

Total analysis time (seconds) = 17.4698

Total CPU time (seconds) = 29.542 

Total DRAM available = 257855.305 MB.
DRAM currently available = 234255.246 MB.
Maximum ngspice program size =  282.641 MB.
Current ngspice program size =  204.930 MB.

Shared ngspice pages =    9.676 MB.
Text (code) pages =    6.285 MB.
Stack = 0 bytes.
Library pages =  196.227 MB.

